##
# This CIF file does not represent a real crystal structure.
# It is used for software testing purposes.
##
data_unit_cell_translations
_cell_angle_alpha                90
_cell_angle_beta                 90
_cell_angle_gamma                90
_cell_length_a                   5
_cell_length_b                   5
_cell_length_c                   5
loop_
_space_group_symop_id
_space_group_symop_operation_xyz
1 x,y,z
# Both atoms share the same atom site (0.5, 0.5, 0,5) in unit cell 555, however,
# one atom is translated to unit cell 222 while the other is translated to unit
# cell 888.
loop_
_atom_site_label
_atom_site_fract_x
_atom_site_fract_y
_atom_site_fract_z
_atom_site_occupancy
Na -3.5 -3.5 -3.5 0.5
K   3.5  3.5  3.5 0.5
