data_7000001
_publ_section_title 
;
 Two- and Four-Electron Alkyne Ligands in Osmium-Cyclopentadienyl
 Chemistry: Consequences of the π⊥→M Interaction. Jorge J. Carbó,
 Pascale Crochet, Miguel A. Esteruelas, Yves Jean, Agustí Lledós, Ana
 M. López, and Enrique Oñate Organometallics; 2002; 21(2) pp 305 -
 314; (Article)
;
_chemical_formula_sum 'C29 H38 Cl O Os P'
_chemical_name_systematic     
;  
 ? 
;
_cell_measurement_temperature  '295.0(2)'
_diffrn_ambient_temperature    '295.0(2)'
_cell_length_a       13.924(2)
_cell_length_b       17.670(2)
_cell_length_c       22.157(3)
_cell_angle_alpha    90.00
_cell_angle_beta     90.00
_cell_angle_gamma    90.00
_cell_volume          5451.44
_symmetry_space_group_name_H-M    Pbca
loop_
_symmetry_equiv_pos_as_xyz
 'x, y, z'
 '-x+1/2, -y, z+1/2'
 'x+1/2, -y+1/2, -z'
 '-x, y+1/2, -z+1/2'
 '-x, -y, -z'
 'x-1/2, y, -z-1/2'
 '-x-1/2, y-1/2, z'
 'x, -y-1/2, z-1/2'
loop_
_atom_site_label
_atom_site_symmetry_multiplicity
_atom_site_Wyckoff_symbol
_atom_site_fract_x
_atom_site_fract_y
_atom_site_fract_z
_atom_site_occupancy
_atom_site_U_iso_or_equiv
_atom_site_adp_type
Os 1 ? 0.600695(17) 0.243230(11) 0.441106(11) 1 0.03868(11) Uani
Cl 1 ? 0.77411(11) 0.23015(10) 0.45478(9) 1 0.0601(5) Uani
P 1 ? 0.63280(12) 0.36285(9) 0.40001(9) 1 0.0433(4) Uani
O 1 ? 0.7393(3) 0.2665(3) 0.5879(2) 1 0.0674(15) Uani
H0 1 ? 0.7547 0.2630 0.5523 1 0.101 Uiso
C1 1 ? 0.5192(5) 0.3011(4) 0.5089(3) 1 0.0453(17) Uani
H1 1 ? 0.457(5) 0.314(3) 0.505(3) 1 0.07(2) Uiso
C2 1 ? 0.5890(4) 0.2750(3) 0.5351(3) 1 0.0401(15) Uani
C3 1 ? 0.6389(5) 0.2574(3) 0.5934(3) 1 0.0485(16) Uani
C4 1 ? 0.6158(5) 0.1740(3) 0.6112(3) 1 0.0430(16) Uani
C5 1 ? 0.5261(5) 0.1413(4) 0.6024(4) 1 0.061(2) Uani
H5 1 ? 0.4762 0.1704 0.5869 1 0.074 Uiso
C6 1 ? 0.5102(6) 0.0665(4) 0.6162(4) 1 0.069(2) Uani
H6 1 ? 0.4488 0.0464 0.6123 1 0.083 Uiso
C7 1 ? 0.5827(6) 0.0219(4) 0.6355(4) 1 0.068(2) Uani
H7 1 ? 0.5722 -0.0293 0.6426 1 0.082 Uiso
C8 1 ? 0.6708(6) 0.0523(4) 0.6446(4) 1 0.073(2) Uani
H8 1 ? 0.7205 0.0221 0.6588 1 0.087 Uiso
C9 1 ? 0.6876(5) 0.1285(4) 0.6328(4) 1 0.064(2) Uani
H9 1 ? 0.7483 0.1487 0.6396 1 0.076 Uiso
C10A 1 ? 0.6168(10) 0.3125(6) 0.6441(5) 0.47(3) 0.041(5) Uiso
C11A 1 ? 0.5203(10) 0.3267(7) 0.6553(5) 0.47(3) 0.054(5) Uiso
C12A 1 ? 0.4940(10) 0.3798(7) 0.6985(5) 0.47(3) 0.060(5) Uiso
C13A 1 ? 0.5642(12) 0.4188(5) 0.7305(4) 0.47(3) 0.041(5) Uiso
C14A 1 ? 0.6608(11) 0.4045(6) 0.7193(5) 0.47(3) 0.056(5) Uiso
C15A 1 ? 0.6871(9) 0.3514(6) 0.6761(5) 0.47(3) 0.049(4) Uiso
C10B 1 ? 0.5889(10) 0.3121(6) 0.6422(5) 0.53(3) 0.047(4) Uiso
C11B 1 ? 0.4907(10) 0.3135(7) 0.6533(5) 0.53(3) 0.076(5) Uiso
C12B 1 ? 0.4530(11) 0.3647(7) 0.6946(5) 0.53(3) 0.079(6) Uiso
C13B 1 ? 0.5135(14) 0.4146(6) 0.7247(5) 0.53(3) 0.070(5) Uiso
C14B 1 ? 0.6118(13) 0.4132(5) 0.7136(5) 0.53(3) 0.060(5) Uiso
C15B 1 ? 0.6494(11) 0.3619(6) 0.6723(5) 0.53(3) 0.067(5) Uiso
C16 1 ? 0.6549(5) 0.4364(3) 0.4563(3) 1 0.0511(18) Uani
H16 1 ? 0.6058 0.4271 0.4871 1 0.061 Uiso
C17 1 ? 0.7505(6) 0.4267(4) 0.4909(4) 1 0.074(2) Uani
H17A 1 ? 0.8032 0.4386 0.4647 1 0.112 Uiso
H17B 1 ? 0.7563 0.3753 0.5046 1 0.112 Uiso
H17C 1 ? 0.7514 0.4601 0.5250 1 0.112 Uiso
C18 1 ? 0.6410(6) 0.5209(4) 0.4398(4) 1 0.087(3) Uani
H18A 1 ? 0.6542 0.5517 0.4746 1 0.131 Uiso
H18B 1 ? 0.5761 0.5291 0.4269 1 0.131 Uiso
H18C 1 ? 0.6843 0.5343 0.4078 1 0.131 Uiso
C19 1 ? 0.7425(5) 0.3662(4) 0.3516(3) 1 0.0531(17) Uani
H19 1 ? 0.7969 0.3631 0.3795 1 0.064 Uiso
C20 1 ? 0.7528(7) 0.2985(5) 0.3094(3) 1 0.085(3) Uani
H20A 1 ? 0.7028 0.2999 0.2796 1 0.127 Uiso
H20B 1 ? 0.7481 0.2526 0.3323 1 0.127 Uiso
H20C 1 ? 0.8142 0.3006 0.2897 1 0.127 Uiso
C21 1 ? 0.7565(6) 0.4396(4) 0.3167(3) 1 0.081(3) Uani
H21A 1 ? 0.8132 0.4359 0.2922 1 0.122 Uiso
H21B 1 ? 0.7633 0.4809 0.3445 1 0.122 Uiso
H21C 1 ? 0.7017 0.4484 0.2913 1 0.122 Uiso
C22 1 ? 0.5374(5) 0.4041(4) 0.3520(4) 1 0.068(2) Uani
H22 1 ? 0.5596 0.4549 0.3409 1 0.081 Uiso
C23 1 ? 0.4441(5) 0.4158(4) 0.3895(4) 1 0.087(3) Uani
H23A 1 ? 0.4000 0.4467 0.3672 1 0.130 Uiso
H23B 1 ? 0.4596 0.4402 0.4270 1 0.130 Uiso
H23C 1 ? 0.4151 0.3675 0.3976 1 0.130 Uiso
C24 1 ? 0.5154(6) 0.3639(5) 0.2929(4) 1 0.089(3) Uani
H24A 1 ? 0.4977 0.3124 0.3011 1 0.134 Uiso
H24B 1 ? 0.5712 0.3649 0.2676 1 0.134 Uiso
H24C 1 ? 0.4633 0.3892 0.2729 1 0.134 Uiso
C25 1 ? 0.6115(6) 0.1324(4) 0.3928(4) 1 0.071(2) Uani
H25 1 ? 0.6700 0.1107 0.3823 1 0.085 Uiso
C26 1 ? 0.5600(6) 0.1815(4) 0.3563(4) 1 0.066(2) Uani
H26 1 ? 0.5766 0.1977 0.3178 1 0.079 Uiso
C27 1 ? 0.4778(5) 0.2018(4) 0.3890(4) 1 0.068(2) Uani
H27 1 ? 0.4301 0.2351 0.3763 1 0.082 Uiso
C28 1 ? 0.4803(6) 0.1625(4) 0.4451(4) 1 0.064(2) Uani
H28 1 ? 0.4337 0.1650 0.4751 1 0.077 Uiso
C29 1 ? 0.5638(7) 0.1198(4) 0.4477(4) 1 0.077(3) Uani
H29 1 ? 0.5840 0.0891 0.4793 1 0.093 Uiso
loop_
_atom_site_aniso_label
_atom_site_aniso_U_11
_atom_site_aniso_U_22
_atom_site_aniso_U_33
_atom_site_aniso_U_23
_atom_site_aniso_U_13
_atom_site_aniso_U_12
Os 0.03579(15) 0.03346(15) 0.04678(17) -0.00264(12) 0.00025(12) -0.00089(11)
Cl 0.0385(9) 0.0651(11) 0.0768(13) 0.0045(9) 0.0003(8) 0.0111(8)
P 0.0360(9) 0.0429(9) 0.0509(12) 0.0072(8) -0.0002(9) -0.0018(7)
O 0.048(3) 0.092(4) 0.062(3) 0.020(3) -0.013(3) -0.024(3)
C1 0.036(4) 0.048(4) 0.052(5) 0.001(3) 0.005(4) 0.000(3)
C2 0.036(4) 0.037(3) 0.047(4) 0.001(3) 0.001(3) -0.009(3)
C3 0.046(4) 0.049(4) 0.050(4) -0.001(3) -0.006(3) -0.008(3)
C4 0.044(4) 0.046(3) 0.039(4) 0.002(3) 0.003(3) 0.000(3)
C5 0.049(4) 0.063(5) 0.072(5) 0.016(4) -0.007(4) 0.000(4)
C6 0.066(5) 0.061(5) 0.081(6) 0.012(4) -0.004(5) -0.010(4)
C7 0.087(6) 0.053(4) 0.066(6) 0.012(4) 0.008(5) -0.006(4)
C8 0.075(6) 0.058(5) 0.085(6) 0.018(4) 0.007(5) 0.029(4)
C9 0.055(5) 0.065(5) 0.071(5) -0.002(4) -0.005(4) 0.001(4)
C16 0.049(4) 0.042(4) 0.062(5) 0.009(3) 0.006(4) -0.009(3)
C17 0.089(6) 0.060(5) 0.074(6) -0.015(4) -0.015(5) -0.014(5)
C18 0.102(7) 0.045(4) 0.114(8) 0.013(5) 0.008(6) -0.005(4)
C19 0.046(4) 0.064(4) 0.049(4) 0.006(4) 0.009(4) -0.001(4)
C20 0.084(6) 0.096(6) 0.074(6) 0.004(5) 0.030(5) 0.005(5)
C21 0.081(6) 0.088(6) 0.075(6) 0.025(5) 0.017(5) -0.015(5)
C22 0.044(4) 0.071(5) 0.088(6) 0.036(5) -0.020(4) -0.007(4)
C23 0.040(5) 0.094(6) 0.126(9) 0.044(6) -0.010(5) 0.011(4)
C24 0.084(7) 0.102(7) 0.082(6) 0.027(6) -0.041(5) -0.012(5)
C25 0.067(6) 0.044(4) 0.102(7) -0.034(4) -0.004(5) 0.001(4)
C26 0.078(6) 0.058(5) 0.062(5) -0.027(4) 0.000(5) -0.007(4)
C27 0.053(5) 0.060(5) 0.091(7) -0.022(5) -0.014(5) -0.013(4)
C28 0.068(5) 0.053(4) 0.071(6) -0.007(4) 0.003(5) -0.026(4)
C29 0.103(7) 0.040(4) 0.089(7) -0.002(4) -0.004(6) -0.005(4)

#===END
