##
# This test file contains several data blocks with data items from
# the PLATON_SQUEEZE_VOID category,
##

##
# This test data block is based on COD entry 1516136.
#
# The data block contains a proper PLATON_SQUEEZE_VOID data loop.
##
data_loop_only_[INCLUDES_LOOP]
_space_group_IT_number           12
_symmetry_cell_setting           monoclinic
_symmetry_space_group_name_Hall  '-C 2y'
_symmetry_space_group_name_H-M   'C 1 2/m 1'
_cell_angle_alpha                90.00
_cell_angle_beta                 114.8610(10)
_cell_angle_gamma                90.00
_cell_formula_units_Z            4
_cell_length_a                   29.9133(15)
_cell_length_b                   18.7802(9)
_cell_length_c                   19.2461(10)
loop_
_symmetry_equiv_pos_as_xyz
'x, y, z'
'-x, y, -z'
'x+1/2, y+1/2, z'
'-x+1/2, y+1/2, -z'
'-x, -y, -z'
'x, -y, z'
'-x+1/2, -y+1/2, -z'
'x+1/2, -y+1/2, z'
loop_
_atom_site_label
_atom_site_type_symbol
_atom_site_fract_x
_atom_site_fract_y
_atom_site_fract_z
_atom_site_U_iso_or_equiv
_atom_site_adp_type
_atom_site_occupancy
_atom_site_symmetry_multiplicity
_atom_site_calc_flag
_atom_site_refinement_flags
Rh1 Rh 0.281618(8) 0.5000 0.178915(11) 0.02024(6) Uani 1 2 d S
Rh2 Rh 0.239857(8) 0.5000 0.328316(11) 0.02108(6) Uani 1 2 d S
Cl1 Cl 0.276500(19) 0.58167(2) 0.27209(3) 0.02835(12) Uani 1 1 d .
P1 P 0.273679(19) 0.40677(2) 0.10177(3) 0.02135(11) Uani 1 1 d .
P2 P 0.226330(19) 0.58971(3) 0.39152(3) 0.02308(11) Uani 1 1 d .
O1 O 0.27398(7) 0.5000 -0.01719(10) 0.0257(4) Uani 1 2 d S
O2 O 0.29062(7) 0.5000 0.51239(10) 0.0237(4) Uani 1 2 d S
C1 C 0.30370(7) 0.38806(10) 0.03733(11) 0.0245(4) Uani 1 1 d .
C2 C 0.32961(7) 0.32653(10) 0.03778(11) 0.0291(5) Uani 1 1 d .
H2 H 0.3319 0.2891 0.0723 0.035 Uiso 1 1 calc R
C3 C 0.35226(8) 0.31911(11) -0.01168(12) 0.0346(5) Uani 1 1 d .
H3 H 0.3695 0.2765 -0.0111 0.042 Uiso 1 1 calc R
C4 C 0.34994(8) 0.37344(11) -0.06206(12) 0.0354(5) Uani 1 1 d .
H4 H 0.3662 0.3680 -0.0948 0.043 Uiso 1 1 calc R
C5 C 0.32424(8) 0.43527(10) -0.06497(11) 0.0328(5) Uani 1 1 d .
C6 C 0.31954(14) 0.5000 -0.11589(18) 0.0401(8) Uani 1 2 d S
C7 C 0.35997(18) 0.5000 -0.1456(2) 0.0738(15) Uani 1 2 d S
H7A H 0.3570 0.5431 -0.1760 0.111 Uiso 0.50 1 calc PR
H7B H 0.3562 0.4579 -0.1776 0.111 Uiso 0.50 1 calc PR
H7C H 0.3924 0.4991 -0.1021 0.111 Uiso 1 2 calc SR
C8 C 0.26856(17) 0.5000 -0.18386(18) 0.0668(13) Uani 1 2 d S
H8A H 0.2680 0.5353 -0.2217 0.100 Uiso 0.50 1 calc PR
H8B H 0.2434 0.5120 -0.1658 0.100 Uiso 0.50 1 calc PR
H8C H 0.2618 0.4527 -0.2075 0.100 Uiso 0.50 1 calc PR
C9 C 0.30109(8) 0.43943(10) -0.01587(11) 0.0268(4) Uani 1 1 d .
C10 C 0.29121(7) 0.32416(10) 0.15785(10) 0.0246(4) Uani 1 1 d .
C11 C 0.33930(8) 0.31860(11) 0.21328(12) 0.0339(5) Uani 1 1 d .
H11 H 0.3619 0.3563 0.2201 0.041 Uiso 1 1 calc R
C12 C 0.35456(9) 0.25783(13) 0.25907(13) 0.0456(6) Uani 1 1 d .
H12 H 0.3875 0.2541 0.2967 0.055 Uiso 1 1 calc R
C13 C 0.32173(11) 0.20335(13) 0.24957(14) 0.0505(7) Uani 1 1 d .
H13 H 0.3319 0.1622 0.2810 0.061 Uiso 1 1 calc R
C14 C 0.27424(11) 0.20847(12) 0.19464(15) 0.0500(7) Uani 1 1 d .
H14 H 0.2518 0.1706 0.1881 0.060 Uiso 1 1 calc R
C15 C 0.25865(8) 0.26882(10) 0.14831(12) 0.0331(5) Uani 1 1 d .
H15 H 0.2257 0.2719 0.1103 0.040 Uiso 1 1 calc R
C16 C 0.20868(7) 0.39279(10) 0.03712(11) 0.0256(4) Uani 1 1 d .
C17 C 0.19274(8) 0.36740(11) -0.03711(11) 0.0332(5) Uani 1 1 d .
H17 H 0.2162 0.3555 -0.0565 0.040 Uiso 1 1 calc R
C18 C 0.14266(9) 0.35924(12) -0.08343(13) 0.0419(6) Uani 1 1 d .
H18 H 0.1322 0.3421 -0.1343 0.050 Uiso 1 1 calc R
C19 C 0.10853(9) 0.37572(13) -0.05625(14) 0.0470(6) Uani 1 1 d .
H19 H 0.0744 0.3706 -0.0883 0.056 Uiso 1 1 calc R
C20 C 0.12390(9) 0.40001(13) 0.01844(15) 0.0495(6) Uani 1 1 d .
H20 H 0.1003 0.4101 0.0381 0.059 Uiso 1 1 calc R
C21 C 0.17332(8) 0.40948(11) 0.06411(13) 0.0374(5) Uani 1 1 d .
H21 H 0.1835 0.4276 0.1146 0.045 Uiso 1 1 calc R
C22 C 0.28860(7) 0.61463(10) 0.45982(11) 0.0255(4) Uani 1 1 d .
C23 C 0.31415(8) 0.67609(10) 0.45797(12) 0.0326(5) Uani 1 1 d .
H23 H 0.2974 0.7138 0.4242 0.039 Uiso 1 1 calc R
C24 C 0.36394(8) 0.68244(11) 0.50522(13) 0.0389(5) Uani 1 1 d .
H24 H 0.3806 0.7253 0.5045 0.047 Uiso 1 1 calc R
C25 C 0.39002(8) 0.62757(12) 0.55364(12) 0.0371(5) Uani 1 1 d .
H25 H 0.4243 0.6327 0.5844 0.045 Uiso 1 1 calc R
C26 C 0.36610(7) 0.56510(10) 0.55722(11) 0.0284(4) Uani 1 1 d .
C27 C 0.38981(11) 0.5000 0.60709(16) 0.0326(7) Uani 1 2 d S
C28 C 0.44557(11) 0.5000 0.63716(19) 0.0431(8) Uani 1 2 d S
H28A H 0.4589 0.5432 0.6675 0.065 Uiso 0.50 1 calc PR
H28B H 0.4548 0.4989 0.5940 0.065 Uiso 1 2 calc SR
H28C H 0.4590 0.4580 0.6694 0.065 Uiso 0.50 1 calc PR
C29 C 0.37631(12) 0.5000 0.67643(16) 0.0396(8) Uani 1 2 d S
H29A H 0.3959 0.4639 0.7135 0.059 Uiso 0.50 1 calc PR
H29B H 0.3412 0.4891 0.6589 0.059 Uiso 0.50 1 calc PR
H29C H 0.3832 0.5470 0.7008 0.059 Uiso 0.50 1 calc PR
C30 C 0.31602(7) 0.56160(10) 0.51113(10) 0.0246(4) Uani 1 1 d .
C31 C 0.19091(8) 0.59066(10) 0.44968(11) 0.0302(5) Uani 1 1 d .
C32 C 0.21230(10) 0.59999(15) 0.52825(13) 0.0549(7) Uani 1 1 d .
H32 H 0.2471 0.6020 0.5553 0.066 Uiso 1 1 calc R
C33 C 0.18272(12) 0.60646(18) 0.56763(16) 0.0714(9) Uani 1 1 d .
H33 H 0.1978 0.6133 0.6215 0.086 Uiso 1 1 calc R
C34 C 0.13374(12) 0.60337(17) 0.53177(18) 0.0703(9) Uani 1 1 d .
H34 H 0.1142 0.6079 0.5597 0.084 Uiso 1 1 calc R
C35 C 0.11192(11) 0.5934(2) 0.4536(2) 0.0921(12) Uani 1 1 d .
H35 H 0.0771 0.5906 0.4272 0.111 Uiso 1 1 calc R
C36 C 0.14084(9) 0.58755(17) 0.41349(15) 0.0662(9) Uani 1 1 d .
H36 H 0.1254 0.5812 0.3595 0.079 Uiso 1 1 calc R
C37 C 0.20047(7) 0.67167(10) 0.33730(11) 0.0275(4) Uani 1 1 d .
C38 C 0.17901(8) 0.67059(11) 0.25773(11) 0.0323(5) Uani 1 1 d .
H38 H 0.1796 0.6281 0.2314 0.039 Uiso 1 1 calc R
C39 C 0.15668(9) 0.73117(12) 0.21651(13) 0.0426(6) Uani 1 1 d .
H39 H 0.1425 0.7301 0.1621 0.051 Uiso 1 1 calc R
C40 C 0.15506(9) 0.79270(12) 0.25403(14) 0.0462(6) Uani 1 1 d .
H40 H 0.1395 0.8340 0.2256 0.055 Uiso 1 1 calc R
C41 C 0.17619(9) 0.79450(12) 0.33334(13) 0.0442(6) Uani 1 1 d .
H41 H 0.1753 0.8371 0.3594 0.053 Uiso 1 1 calc R
C42 C 0.19833(8) 0.73470(11) 0.37415(12) 0.0365(5) Uani 1 1 d .
H42 H 0.2125 0.7362 0.4285 0.044 Uiso 1 1 calc R
loop_
_atom_type_symbol
_atom_type_description
_atom_type_scat_dispersion_real
_atom_type_scat_dispersion_imag
_atom_type_scat_source
C C 0.0033 0.0016 'International Tables Vol C Tables 4.2.6.8 and 6.1.1.4'
H H 0.0000 0.0000 'International Tables Vol C Tables 4.2.6.8 and 6.1.1.4'
O O 0.0106 0.0060 'International Tables Vol C Tables 4.2.6.8 and 6.1.1.4'
P P 0.1023 0.0942 'International Tables Vol C Tables 4.2.6.8 and 6.1.1.4'
Cl Cl 0.1484 0.1585 'International Tables Vol C Tables 4.2.6.8 and 6.1.1.4'
Rh Rh -1.1178 0.9187 'International Tables Vol C Tables 4.2.6.8 and 6.1.1.4'
loop_
_platon_squeeze_void_nr
_platon_squeeze_void_average_x
_platon_squeeze_void_average_y
_platon_squeeze_void_average_z
_platon_squeeze_void_volume
_platon_squeeze_void_count_electrons
1 0.000 -0.025 0.000 2021.0 640.2
2 0.236 0.000 0.344 6.9 0.1
3 0.500 -0.012 0.307 2021.0 640.2
4 0.764 0.000 0.656 6.9 -0.1
5 0.264 0.500 0.656 6.9 -0.1
6 0.736 0.500 0.344 6.9 0.1

##
# This test data block in based on COD entry 4128210.
#
# The data block contains both the '_platon_squeeze_void_probe_radius' data item
# and a separate the PLATON_SQUEEZE_VOID data loop.
##
data_both_[INCLUDES_LOOP]
_chemical_formula_sum            'C44 H38 Cl O P Pt'
_chemical_formula_weight         844.25
_space_group_crystal_system      triclinic
_space_group_IT_number           2
_space_group_name_Hall           '-P 1'
_space_group_name_H-M_alt        'P -1'
_cell_angle_alpha                84.553(6)
_cell_angle_beta                 70.610(5)
_cell_angle_gamma                81.993(6)
_cell_formula_units_Z            2
_cell_length_a                   11.2330(15)
_cell_length_b                   13.617(2)
_cell_length_c                   13.798(2)
_platon_squeeze_void_probe_radius 1.20
loop_
_space_group_symop_operation_xyz
'x, y, z'
'-x, -y, -z'
loop_
_atom_site_label
_atom_site_type_symbol
_atom_site_fract_x
_atom_site_fract_y
_atom_site_fract_z
_atom_site_U_iso_or_equiv
_atom_site_adp_type
_atom_site_occupancy
_atom_site_site_symmetry_order
_atom_site_calc_flag
_atom_site_refinement_flags_posn
_atom_site_refinement_flags_adp
Pt1 Pt 0.36342(2) 0.69582(2) 0.73498(2) 0.01299(5) Uani 1 1 d . .
P1 P 0.41004(8) 0.82494(6) 0.61798(6) 0.01360(17) Uani 1 1 d . .
C1 C 0.4376(4) 0.5837(3) 0.6294(3) 0.0249(8) Uani 1 1 d . .
H1 H 0.433220 0.519934 0.665828 0.037 Uiso 1 1 calc R U
H1A H 0.524538 0.591600 0.590839 0.037 Uiso 1 1 calc R U
H1B H 0.388980 0.588294 0.583246 0.037 Uiso 1 1 calc R U
H1C H 0.761(3) 0.307(3) 0.695(3) 0.008(8) Uiso 1 1 d . .
C2 C 0.1909(3) 0.6893(3) 0.7089(3) 0.0226(8) Uani 1 1 d . .
H2 H 0.207219 0.658276 0.645419 0.034 Uiso 1 1 calc R U
H2A H 0.149088 0.755288 0.705043 0.034 Uiso 1 1 calc R U
H2B H 0.137415 0.651209 0.764454 0.034 Uiso 1 1 calc R U
O1 O 0.5551(2) 0.5241(2) 0.8145(2) 0.0198(5) Uani 1 1 d . .
H1D H 0.535(4) 0.472(4) 0.834(4) 0.034(14) Uiso 1 1 d . .
C3 C 0.4752(3) 0.6047(3) 0.8398(2) 0.0157(7) Uani 1 1 d . .
C4 C 0.5139(3) 0.7020(3) 0.8126(2) 0.0144(7) Uani 1 1 d . .
C5 C 0.4029(3) 0.7727(3) 0.8573(2) 0.0133(6) Uani 1 1 d . .
C6 C 0.2965(3) 0.7180(2) 0.9067(2) 0.0131(6) Uani 1 1 d . .
C7 C 0.3391(3) 0.6136(3) 0.8906(2) 0.0146(7) Uani 1 1 d . .
C8 C 0.6452(3) 0.7272(3) 0.7660(3) 0.0154(7) Uani 1 1 d . .
C9 C 0.6897(3) 0.7934(3) 0.8140(3) 0.0198(7) Uani 1 1 d . .
H9 H 0.637774 0.818519 0.876328 0.024 Uiso 1 1 calc R U
C10 C 0.8100(3) 0.8217(3) 0.7694(3) 0.0232(8) Uani 1 1 d . .
H10 H 0.838171 0.866858 0.800997 0.028 Uiso 1 1 calc R U
C11 C 0.8897(3) 0.7825(3) 0.6769(3) 0.0244(8) Uani 1 1 d . .
H11 H 0.970423 0.802287 0.646568 0.029 Uiso 1 1 calc R U
C12 C 0.8488(3) 0.7149(3) 0.6307(3) 0.0246(8) Uani 1 1 d . .
H12 H 0.902404 0.687997 0.569750 0.030 Uiso 1 1 calc R U
C13 C 0.7274(3) 0.6866(3) 0.6752(3) 0.0203(7) Uani 1 1 d . .
H13 H 0.700612 0.640115 0.644127 0.024 Uiso 1 1 calc R U
C14 C 0.4009(3) 0.8811(3) 0.8589(3) 0.0145(7) Uani 1 1 d . .
C15 C 0.4409(3) 0.9429(3) 0.7690(2) 0.0152(7) Uani 1 1 d . .
C16 C 0.4351(3) 1.0447(3) 0.7800(3) 0.0197(7) Uani 1 1 d . .
H16 H 0.458899 1.086809 0.721417 0.024 Uiso 1 1 calc R U
C17 C 0.3948(3) 1.0846(3) 0.8760(3) 0.0205(7) Uani 1 1 d . .
H17 H 0.392638 1.152401 0.881384 0.025 Uiso 1 1 calc R U
C18 C 0.3580(3) 1.0230(3) 0.9636(3) 0.0198(7) Uani 1 1 d . .
H18 H 0.332082 1.049163 1.028182 0.024 Uiso 1 1 calc R U
C19 C 0.3597(3) 0.9223(3) 0.9552(2) 0.0162(7) Uani 1 1 d . .
H19 H 0.333149 0.881486 1.014400 0.019 Uiso 1 1 calc R U
C20 C 0.1697(3) 0.7600(3) 0.9738(3) 0.0169(7) Uani 1 1 d . .
C21 C 0.0839(3) 0.8211(3) 0.9364(3) 0.0205(7) Uani 1 1 d . .
H21 H 0.102857 0.833499 0.865771 0.025 Uiso 1 1 calc R U
C22 C -0.0302(3) 0.8646(3) 1.0025(3) 0.0261(8) Uani 1 1 d . .
H22 H -0.086151 0.906306 0.976048 0.031 Uiso 1 1 calc R U
C23 C -0.0599(3) 0.8455(3) 1.1076(3) 0.0248(8) Uani 1 1 d . .
H23 H -0.136558 0.873514 1.152118 0.030 Uiso 1 1 calc R U
C24 C 0.0250(3) 0.7845(3) 1.1463(3) 0.0228(8) Uani 1 1 d . .
H24 H 0.005324 0.771874 1.216938 0.027 Uiso 1 1 calc R U
C25 C 0.1395(3) 0.7419(3) 1.0802(3) 0.0197(7) Uani 1 1 d . .
H25 H 0.196126 0.701286 1.106887 0.024 Uiso 1 1 calc R U
C26 C 0.2631(3) 0.5303(3) 0.9403(3) 0.0161(7) Uani 1 1 d . .
C27 C 0.2016(3) 0.4827(3) 0.8897(3) 0.0220(8) Uani 1 1 d . .
H27 H 0.208844 0.501091 0.821554 0.026 Uiso 1 1 calc R U
C28 C 0.1288(4) 0.4070(3) 0.9412(3) 0.0274(9) Uani 1 1 d . .
H28 H 0.087786 0.374721 0.907204 0.033 Uiso 1 1 calc R U
C29 C 0.1176(4) 0.3798(3) 1.0430(3) 0.0266(9) Uani 1 1 d . .
H29 H 0.068596 0.329531 1.077076 0.032 Uiso 1 1 calc R U
C30 C 0.1784(4) 0.4268(3) 1.0939(3) 0.0271(9) Uani 1 1 d . .
H30 H 0.170981 0.408128 1.162109 0.033 Uiso 1 1 calc R U
C31 C 0.2513(3) 0.5025(3) 1.0425(3) 0.0210(8) Uani 1 1 d . .
H31 H 0.292304 0.534539 1.076779 0.025 Uiso 1 1 calc R U
C32 C 0.4979(3) 0.9051(3) 0.6619(2) 0.0158(7) Uani 1 1 d . .
H32 H 0.580428 0.869035 0.656779 0.019 Uiso 1 1 calc R U
H32A H 0.512691 0.962377 0.613802 0.019 Uiso 1 1 calc R U
C33 C 0.2800(3) 0.9098(3) 0.5967(3) 0.0166(7) Uani 1 1 d . .
C34 C 0.2695(3) 0.9346(3) 0.4987(3) 0.0196(7) Uani 1 1 d . .
H34 H 0.327391 0.904070 0.441538 0.024 Uiso 1 1 calc R U
C35 C 0.1721(4) 1.0051(3) 0.4874(3) 0.0254(8) Uani 1 1 d . .
H35 H 0.166557 1.022982 0.422164 0.031 Uiso 1 1 calc R U
C36 C 0.0840(4) 1.0487(3) 0.5720(3) 0.0274(9) Uani 1 1 d . .
H36 H 0.019072 1.095639 0.563635 0.033 Uiso 1 1 calc R U
C37 C 0.0916(4) 1.0228(3) 0.6696(3) 0.0259(8) Uani 1 1 d . .
H37 H 0.030383 1.050788 0.726776 0.031 Uiso 1 1 calc R U
C38 C 0.1902(3) 0.9554(3) 0.6817(3) 0.0212(8) Uani 1 1 d . .
H38 H 0.197005 0.940220 0.746927 0.025 Uiso 1 1 calc R U
C39 C 0.5144(3) 0.7879(3) 0.4918(2) 0.0169(7) Uani 1 1 d . .
C40 C 0.4665(4) 0.7369(3) 0.4324(3) 0.0205(7) Uani 1 1 d . .
H40 H 0.381301 0.726388 0.455967 0.025 Uiso 1 1 calc R U
C41 C 0.5447(4) 0.7018(3) 0.3390(3) 0.0276(9) Uani 1 1 d . .
H41 H 0.511657 0.669521 0.298908 0.033 Uiso 1 1 calc R U
C42 C 0.6724(4) 0.7149(3) 0.3053(3) 0.0311(10) Uani 1 1 d . .
H42 H 0.725420 0.690613 0.242834 0.037 Uiso 1 1 calc R U
C43 C 0.7213(4) 0.7640(3) 0.3642(3) 0.0293(9) Uani 1 1 d . .
H43 H 0.807321 0.771936 0.341538 0.035 Uiso 1 1 calc R U
C44 C 0.6426(3) 0.8015(3) 0.4575(3) 0.0217(8) Uani 1 1 d . .
H44 H 0.675409 0.835399 0.496453 0.026 Uiso 1 1 calc R U
Cl1 Cl 0.53191(9) 0.31650(7) 0.90197(7) 0.02464(19) Uani 1 1 d . .
Cl2 Cl 0.73500(12) 0.17033(13) 0.73593(11) 0.0627(4) Uani 1 1 d . .
loop_
_atom_type_symbol
_atom_type_description
_atom_type_scat_dispersion_real
_atom_type_scat_dispersion_imag
_atom_type_scat_source
Pt Pt -1.7033 8.3905 'International Tables Vol C Tables 4.2.6.8 and 6.1.1.4'
C C 0.0033 0.0016 'International Tables Vol C Tables 4.2.6.8 and 6.1.1.4'
H H 0.0000 0.0000 'International Tables Vol C Tables 4.2.6.8 and 6.1.1.4'
O O 0.0106 0.0060 'International Tables Vol C Tables 4.2.6.8 and 6.1.1.4'
P P 0.1023 0.0942 'International Tables Vol C Tables 4.2.6.8 and 6.1.1.4'
Cl Cl 0.1484 0.1585 'International Tables Vol C Tables 4.2.6.8 and 6.1.1.4'
loop_
_platon_squeeze_void_nr
_platon_squeeze_void_average_x
_platon_squeeze_void_average_y
_platon_squeeze_void_average_z
_platon_squeeze_void_volume
_platon_squeeze_void_count_electrons
_platon_squeeze_void_content
1 0.000 0.500 0.500 235 61 ' '

##
# This test data block in based on COD entry 4128210.
#
# The data block contains the '_platon_squeeze_void_probe_radius' data item,
# but not the PLATON_SQUEEZE_VOID category loop.
##
data_probe_only_[EXCLUDES_LOOP]
_chemical_formula_sum            'C44 H38 Cl O P Pt'
_chemical_formula_weight         844.25
_space_group_crystal_system      triclinic
_space_group_IT_number           2
_space_group_name_Hall           '-P 1'
_space_group_name_H-M_alt        'P -1'
_cell_angle_alpha                84.553(6)
_cell_angle_beta                 70.610(5)
_cell_angle_gamma                81.993(6)
_cell_formula_units_Z            2
_cell_length_a                   11.2330(15)
_cell_length_b                   13.617(2)
_cell_length_c                   13.798(2)
_platon_squeeze_void_probe_radius 1.20
loop_
_space_group_symop_operation_xyz
'x, y, z'
'-x, -y, -z'
loop_
_atom_site_label
_atom_site_type_symbol
_atom_site_fract_x
_atom_site_fract_y
_atom_site_fract_z
_atom_site_U_iso_or_equiv
_atom_site_adp_type
_atom_site_occupancy
_atom_site_site_symmetry_order
_atom_site_calc_flag
_atom_site_refinement_flags_posn
_atom_site_refinement_flags_adp
Pt1 Pt 0.36342(2) 0.69582(2) 0.73498(2) 0.01299(5) Uani 1 1 d . .
P1 P 0.41004(8) 0.82494(6) 0.61798(6) 0.01360(17) Uani 1 1 d . .
C1 C 0.4376(4) 0.5837(3) 0.6294(3) 0.0249(8) Uani 1 1 d . .
H1 H 0.433220 0.519934 0.665828 0.037 Uiso 1 1 calc R U
H1A H 0.524538 0.591600 0.590839 0.037 Uiso 1 1 calc R U
H1B H 0.388980 0.588294 0.583246 0.037 Uiso 1 1 calc R U
H1C H 0.761(3) 0.307(3) 0.695(3) 0.008(8) Uiso 1 1 d . .
C2 C 0.1909(3) 0.6893(3) 0.7089(3) 0.0226(8) Uani 1 1 d . .
H2 H 0.207219 0.658276 0.645419 0.034 Uiso 1 1 calc R U
H2A H 0.149088 0.755288 0.705043 0.034 Uiso 1 1 calc R U
H2B H 0.137415 0.651209 0.764454 0.034 Uiso 1 1 calc R U
O1 O 0.5551(2) 0.5241(2) 0.8145(2) 0.0198(5) Uani 1 1 d . .
H1D H 0.535(4) 0.472(4) 0.834(4) 0.034(14) Uiso 1 1 d . .
C3 C 0.4752(3) 0.6047(3) 0.8398(2) 0.0157(7) Uani 1 1 d . .
C4 C 0.5139(3) 0.7020(3) 0.8126(2) 0.0144(7) Uani 1 1 d . .
C5 C 0.4029(3) 0.7727(3) 0.8573(2) 0.0133(6) Uani 1 1 d . .
C6 C 0.2965(3) 0.7180(2) 0.9067(2) 0.0131(6) Uani 1 1 d . .
C7 C 0.3391(3) 0.6136(3) 0.8906(2) 0.0146(7) Uani 1 1 d . .
C8 C 0.6452(3) 0.7272(3) 0.7660(3) 0.0154(7) Uani 1 1 d . .
C9 C 0.6897(3) 0.7934(3) 0.8140(3) 0.0198(7) Uani 1 1 d . .
H9 H 0.637774 0.818519 0.876328 0.024 Uiso 1 1 calc R U
C10 C 0.8100(3) 0.8217(3) 0.7694(3) 0.0232(8) Uani 1 1 d . .
H10 H 0.838171 0.866858 0.800997 0.028 Uiso 1 1 calc R U
C11 C 0.8897(3) 0.7825(3) 0.6769(3) 0.0244(8) Uani 1 1 d . .
H11 H 0.970423 0.802287 0.646568 0.029 Uiso 1 1 calc R U
C12 C 0.8488(3) 0.7149(3) 0.6307(3) 0.0246(8) Uani 1 1 d . .
H12 H 0.902404 0.687997 0.569750 0.030 Uiso 1 1 calc R U
C13 C 0.7274(3) 0.6866(3) 0.6752(3) 0.0203(7) Uani 1 1 d . .
H13 H 0.700612 0.640115 0.644127 0.024 Uiso 1 1 calc R U
C14 C 0.4009(3) 0.8811(3) 0.8589(3) 0.0145(7) Uani 1 1 d . .
C15 C 0.4409(3) 0.9429(3) 0.7690(2) 0.0152(7) Uani 1 1 d . .
C16 C 0.4351(3) 1.0447(3) 0.7800(3) 0.0197(7) Uani 1 1 d . .
H16 H 0.458899 1.086809 0.721417 0.024 Uiso 1 1 calc R U
C17 C 0.3948(3) 1.0846(3) 0.8760(3) 0.0205(7) Uani 1 1 d . .
H17 H 0.392638 1.152401 0.881384 0.025 Uiso 1 1 calc R U
C18 C 0.3580(3) 1.0230(3) 0.9636(3) 0.0198(7) Uani 1 1 d . .
H18 H 0.332082 1.049163 1.028182 0.024 Uiso 1 1 calc R U
C19 C 0.3597(3) 0.9223(3) 0.9552(2) 0.0162(7) Uani 1 1 d . .
H19 H 0.333149 0.881486 1.014400 0.019 Uiso 1 1 calc R U
C20 C 0.1697(3) 0.7600(3) 0.9738(3) 0.0169(7) Uani 1 1 d . .
C21 C 0.0839(3) 0.8211(3) 0.9364(3) 0.0205(7) Uani 1 1 d . .
H21 H 0.102857 0.833499 0.865771 0.025 Uiso 1 1 calc R U
C22 C -0.0302(3) 0.8646(3) 1.0025(3) 0.0261(8) Uani 1 1 d . .
H22 H -0.086151 0.906306 0.976048 0.031 Uiso 1 1 calc R U
C23 C -0.0599(3) 0.8455(3) 1.1076(3) 0.0248(8) Uani 1 1 d . .
H23 H -0.136558 0.873514 1.152118 0.030 Uiso 1 1 calc R U
C24 C 0.0250(3) 0.7845(3) 1.1463(3) 0.0228(8) Uani 1 1 d . .
H24 H 0.005324 0.771874 1.216938 0.027 Uiso 1 1 calc R U
C25 C 0.1395(3) 0.7419(3) 1.0802(3) 0.0197(7) Uani 1 1 d . .
H25 H 0.196126 0.701286 1.106887 0.024 Uiso 1 1 calc R U
C26 C 0.2631(3) 0.5303(3) 0.9403(3) 0.0161(7) Uani 1 1 d . .
C27 C 0.2016(3) 0.4827(3) 0.8897(3) 0.0220(8) Uani 1 1 d . .
H27 H 0.208844 0.501091 0.821554 0.026 Uiso 1 1 calc R U
C28 C 0.1288(4) 0.4070(3) 0.9412(3) 0.0274(9) Uani 1 1 d . .
H28 H 0.087786 0.374721 0.907204 0.033 Uiso 1 1 calc R U
C29 C 0.1176(4) 0.3798(3) 1.0430(3) 0.0266(9) Uani 1 1 d . .
H29 H 0.068596 0.329531 1.077076 0.032 Uiso 1 1 calc R U
C30 C 0.1784(4) 0.4268(3) 1.0939(3) 0.0271(9) Uani 1 1 d . .
H30 H 0.170981 0.408128 1.162109 0.033 Uiso 1 1 calc R U
C31 C 0.2513(3) 0.5025(3) 1.0425(3) 0.0210(8) Uani 1 1 d . .
H31 H 0.292304 0.534539 1.076779 0.025 Uiso 1 1 calc R U
C32 C 0.4979(3) 0.9051(3) 0.6619(2) 0.0158(7) Uani 1 1 d . .
H32 H 0.580428 0.869035 0.656779 0.019 Uiso 1 1 calc R U
H32A H 0.512691 0.962377 0.613802 0.019 Uiso 1 1 calc R U
C33 C 0.2800(3) 0.9098(3) 0.5967(3) 0.0166(7) Uani 1 1 d . .
C34 C 0.2695(3) 0.9346(3) 0.4987(3) 0.0196(7) Uani 1 1 d . .
H34 H 0.327391 0.904070 0.441538 0.024 Uiso 1 1 calc R U
C35 C 0.1721(4) 1.0051(3) 0.4874(3) 0.0254(8) Uani 1 1 d . .
H35 H 0.166557 1.022982 0.422164 0.031 Uiso 1 1 calc R U
C36 C 0.0840(4) 1.0487(3) 0.5720(3) 0.0274(9) Uani 1 1 d . .
H36 H 0.019072 1.095639 0.563635 0.033 Uiso 1 1 calc R U
C37 C 0.0916(4) 1.0228(3) 0.6696(3) 0.0259(8) Uani 1 1 d . .
H37 H 0.030383 1.050788 0.726776 0.031 Uiso 1 1 calc R U
C38 C 0.1902(3) 0.9554(3) 0.6817(3) 0.0212(8) Uani 1 1 d . .
H38 H 0.197005 0.940220 0.746927 0.025 Uiso 1 1 calc R U
C39 C 0.5144(3) 0.7879(3) 0.4918(2) 0.0169(7) Uani 1 1 d . .
C40 C 0.4665(4) 0.7369(3) 0.4324(3) 0.0205(7) Uani 1 1 d . .
H40 H 0.381301 0.726388 0.455967 0.025 Uiso 1 1 calc R U
C41 C 0.5447(4) 0.7018(3) 0.3390(3) 0.0276(9) Uani 1 1 d . .
H41 H 0.511657 0.669521 0.298908 0.033 Uiso 1 1 calc R U
C42 C 0.6724(4) 0.7149(3) 0.3053(3) 0.0311(10) Uani 1 1 d . .
H42 H 0.725420 0.690613 0.242834 0.037 Uiso 1 1 calc R U
C43 C 0.7213(4) 0.7640(3) 0.3642(3) 0.0293(9) Uani 1 1 d . .
H43 H 0.807321 0.771936 0.341538 0.035 Uiso 1 1 calc R U
C44 C 0.6426(3) 0.8015(3) 0.4575(3) 0.0217(8) Uani 1 1 d . .
H44 H 0.675409 0.835399 0.496453 0.026 Uiso 1 1 calc R U
Cl1 Cl 0.53191(9) 0.31650(7) 0.90197(7) 0.02464(19) Uani 1 1 d . .
Cl2 Cl 0.73500(12) 0.17033(13) 0.73593(11) 0.0627(4) Uani 1 1 d . .
loop_
_atom_type_symbol
_atom_type_description
_atom_type_scat_dispersion_real
_atom_type_scat_dispersion_imag
_atom_type_scat_source
Pt Pt -1.7033 8.3905 'International Tables Vol C Tables 4.2.6.8 and 6.1.1.4'
C C 0.0033 0.0016 'International Tables Vol C Tables 4.2.6.8 and 6.1.1.4'
H H 0.0000 0.0000 'International Tables Vol C Tables 4.2.6.8 and 6.1.1.4'
O O 0.0106 0.0060 'International Tables Vol C Tables 4.2.6.8 and 6.1.1.4'
P P 0.1023 0.0942 'International Tables Vol C Tables 4.2.6.8 and 6.1.1.4'
Cl Cl 0.1484 0.1585 'International Tables Vol C Tables 4.2.6.8 and 6.1.1.4'

##
# This test data block in based on COD entry 4128210.
#
# The data block contains data items from the PLATON_SQUEEZE_VOID category in
# an unlooped context.
##
data_unlooped_[INCLUDES_LOOP]
_chemical_formula_sum            'C44 H38 Cl O P Pt'
_chemical_formula_weight         844.25
_space_group_crystal_system      triclinic
_space_group_IT_number           2
_space_group_name_Hall           '-P 1'
_space_group_name_H-M_alt        'P -1'
_cell_angle_alpha                84.553(6)
_cell_angle_beta                 70.610(5)
_cell_angle_gamma                81.993(6)
_cell_formula_units_Z            2
_cell_length_a                   11.2330(15)
_cell_length_b                   13.617(2)
_cell_length_c                   13.798(2)
loop_
_space_group_symop_operation_xyz
'x, y, z'
'-x, -y, -z'
loop_
_atom_site_label
_atom_site_type_symbol
_atom_site_fract_x
_atom_site_fract_y
_atom_site_fract_z
_atom_site_U_iso_or_equiv
_atom_site_adp_type
_atom_site_occupancy
_atom_site_site_symmetry_order
_atom_site_calc_flag
_atom_site_refinement_flags_posn
_atom_site_refinement_flags_adp
Pt1 Pt 0.36342(2) 0.69582(2) 0.73498(2) 0.01299(5) Uani 1 1 d . .
P1 P 0.41004(8) 0.82494(6) 0.61798(6) 0.01360(17) Uani 1 1 d . .
C1 C 0.4376(4) 0.5837(3) 0.6294(3) 0.0249(8) Uani 1 1 d . .
H1 H 0.433220 0.519934 0.665828 0.037 Uiso 1 1 calc R U
H1A H 0.524538 0.591600 0.590839 0.037 Uiso 1 1 calc R U
H1B H 0.388980 0.588294 0.583246 0.037 Uiso 1 1 calc R U
H1C H 0.761(3) 0.307(3) 0.695(3) 0.008(8) Uiso 1 1 d . .
C2 C 0.1909(3) 0.6893(3) 0.7089(3) 0.0226(8) Uani 1 1 d . .
H2 H 0.207219 0.658276 0.645419 0.034 Uiso 1 1 calc R U
H2A H 0.149088 0.755288 0.705043 0.034 Uiso 1 1 calc R U
H2B H 0.137415 0.651209 0.764454 0.034 Uiso 1 1 calc R U
O1 O 0.5551(2) 0.5241(2) 0.8145(2) 0.0198(5) Uani 1 1 d . .
H1D H 0.535(4) 0.472(4) 0.834(4) 0.034(14) Uiso 1 1 d . .
C3 C 0.4752(3) 0.6047(3) 0.8398(2) 0.0157(7) Uani 1 1 d . .
C4 C 0.5139(3) 0.7020(3) 0.8126(2) 0.0144(7) Uani 1 1 d . .
C5 C 0.4029(3) 0.7727(3) 0.8573(2) 0.0133(6) Uani 1 1 d . .
C6 C 0.2965(3) 0.7180(2) 0.9067(2) 0.0131(6) Uani 1 1 d . .
C7 C 0.3391(3) 0.6136(3) 0.8906(2) 0.0146(7) Uani 1 1 d . .
C8 C 0.6452(3) 0.7272(3) 0.7660(3) 0.0154(7) Uani 1 1 d . .
C9 C 0.6897(3) 0.7934(3) 0.8140(3) 0.0198(7) Uani 1 1 d . .
H9 H 0.637774 0.818519 0.876328 0.024 Uiso 1 1 calc R U
C10 C 0.8100(3) 0.8217(3) 0.7694(3) 0.0232(8) Uani 1 1 d . .
H10 H 0.838171 0.866858 0.800997 0.028 Uiso 1 1 calc R U
C11 C 0.8897(3) 0.7825(3) 0.6769(3) 0.0244(8) Uani 1 1 d . .
H11 H 0.970423 0.802287 0.646568 0.029 Uiso 1 1 calc R U
C12 C 0.8488(3) 0.7149(3) 0.6307(3) 0.0246(8) Uani 1 1 d . .
H12 H 0.902404 0.687997 0.569750 0.030 Uiso 1 1 calc R U
C13 C 0.7274(3) 0.6866(3) 0.6752(3) 0.0203(7) Uani 1 1 d . .
H13 H 0.700612 0.640115 0.644127 0.024 Uiso 1 1 calc R U
C14 C 0.4009(3) 0.8811(3) 0.8589(3) 0.0145(7) Uani 1 1 d . .
C15 C 0.4409(3) 0.9429(3) 0.7690(2) 0.0152(7) Uani 1 1 d . .
C16 C 0.4351(3) 1.0447(3) 0.7800(3) 0.0197(7) Uani 1 1 d . .
H16 H 0.458899 1.086809 0.721417 0.024 Uiso 1 1 calc R U
C17 C 0.3948(3) 1.0846(3) 0.8760(3) 0.0205(7) Uani 1 1 d . .
H17 H 0.392638 1.152401 0.881384 0.025 Uiso 1 1 calc R U
C18 C 0.3580(3) 1.0230(3) 0.9636(3) 0.0198(7) Uani 1 1 d . .
H18 H 0.332082 1.049163 1.028182 0.024 Uiso 1 1 calc R U
C19 C 0.3597(3) 0.9223(3) 0.9552(2) 0.0162(7) Uani 1 1 d . .
H19 H 0.333149 0.881486 1.014400 0.019 Uiso 1 1 calc R U
C20 C 0.1697(3) 0.7600(3) 0.9738(3) 0.0169(7) Uani 1 1 d . .
C21 C 0.0839(3) 0.8211(3) 0.9364(3) 0.0205(7) Uani 1 1 d . .
H21 H 0.102857 0.833499 0.865771 0.025 Uiso 1 1 calc R U
C22 C -0.0302(3) 0.8646(3) 1.0025(3) 0.0261(8) Uani 1 1 d . .
H22 H -0.086151 0.906306 0.976048 0.031 Uiso 1 1 calc R U
C23 C -0.0599(3) 0.8455(3) 1.1076(3) 0.0248(8) Uani 1 1 d . .
H23 H -0.136558 0.873514 1.152118 0.030 Uiso 1 1 calc R U
C24 C 0.0250(3) 0.7845(3) 1.1463(3) 0.0228(8) Uani 1 1 d . .
H24 H 0.005324 0.771874 1.216938 0.027 Uiso 1 1 calc R U
C25 C 0.1395(3) 0.7419(3) 1.0802(3) 0.0197(7) Uani 1 1 d . .
H25 H 0.196126 0.701286 1.106887 0.024 Uiso 1 1 calc R U
C26 C 0.2631(3) 0.5303(3) 0.9403(3) 0.0161(7) Uani 1 1 d . .
C27 C 0.2016(3) 0.4827(3) 0.8897(3) 0.0220(8) Uani 1 1 d . .
H27 H 0.208844 0.501091 0.821554 0.026 Uiso 1 1 calc R U
C28 C 0.1288(4) 0.4070(3) 0.9412(3) 0.0274(9) Uani 1 1 d . .
H28 H 0.087786 0.374721 0.907204 0.033 Uiso 1 1 calc R U
C29 C 0.1176(4) 0.3798(3) 1.0430(3) 0.0266(9) Uani 1 1 d . .
H29 H 0.068596 0.329531 1.077076 0.032 Uiso 1 1 calc R U
C30 C 0.1784(4) 0.4268(3) 1.0939(3) 0.0271(9) Uani 1 1 d . .
H30 H 0.170981 0.408128 1.162109 0.033 Uiso 1 1 calc R U
C31 C 0.2513(3) 0.5025(3) 1.0425(3) 0.0210(8) Uani 1 1 d . .
H31 H 0.292304 0.534539 1.076779 0.025 Uiso 1 1 calc R U
C32 C 0.4979(3) 0.9051(3) 0.6619(2) 0.0158(7) Uani 1 1 d . .
H32 H 0.580428 0.869035 0.656779 0.019 Uiso 1 1 calc R U
H32A H 0.512691 0.962377 0.613802 0.019 Uiso 1 1 calc R U
C33 C 0.2800(3) 0.9098(3) 0.5967(3) 0.0166(7) Uani 1 1 d . .
C34 C 0.2695(3) 0.9346(3) 0.4987(3) 0.0196(7) Uani 1 1 d . .
H34 H 0.327391 0.904070 0.441538 0.024 Uiso 1 1 calc R U
C35 C 0.1721(4) 1.0051(3) 0.4874(3) 0.0254(8) Uani 1 1 d . .
H35 H 0.166557 1.022982 0.422164 0.031 Uiso 1 1 calc R U
C36 C 0.0840(4) 1.0487(3) 0.5720(3) 0.0274(9) Uani 1 1 d . .
H36 H 0.019072 1.095639 0.563635 0.033 Uiso 1 1 calc R U
C37 C 0.0916(4) 1.0228(3) 0.6696(3) 0.0259(8) Uani 1 1 d . .
H37 H 0.030383 1.050788 0.726776 0.031 Uiso 1 1 calc R U
C38 C 0.1902(3) 0.9554(3) 0.6817(3) 0.0212(8) Uani 1 1 d . .
H38 H 0.197005 0.940220 0.746927 0.025 Uiso 1 1 calc R U
C39 C 0.5144(3) 0.7879(3) 0.4918(2) 0.0169(7) Uani 1 1 d . .
C40 C 0.4665(4) 0.7369(3) 0.4324(3) 0.0205(7) Uani 1 1 d . .
H40 H 0.381301 0.726388 0.455967 0.025 Uiso 1 1 calc R U
C41 C 0.5447(4) 0.7018(3) 0.3390(3) 0.0276(9) Uani 1 1 d . .
H41 H 0.511657 0.669521 0.298908 0.033 Uiso 1 1 calc R U
C42 C 0.6724(4) 0.7149(3) 0.3053(3) 0.0311(10) Uani 1 1 d . .
H42 H 0.725420 0.690613 0.242834 0.037 Uiso 1 1 calc R U
C43 C 0.7213(4) 0.7640(3) 0.3642(3) 0.0293(9) Uani 1 1 d . .
H43 H 0.807321 0.771936 0.341538 0.035 Uiso 1 1 calc R U
C44 C 0.6426(3) 0.8015(3) 0.4575(3) 0.0217(8) Uani 1 1 d . .
H44 H 0.675409 0.835399 0.496453 0.026 Uiso 1 1 calc R U
Cl1 Cl 0.53191(9) 0.31650(7) 0.90197(7) 0.02464(19) Uani 1 1 d . .
Cl2 Cl 0.73500(12) 0.17033(13) 0.73593(11) 0.0627(4) Uani 1 1 d . .
loop_
_atom_type_symbol
_atom_type_description
_atom_type_scat_dispersion_real
_atom_type_scat_dispersion_imag
_atom_type_scat_source
Pt Pt -1.7033 8.3905 'International Tables Vol C Tables 4.2.6.8 and 6.1.1.4'
C C 0.0033 0.0016 'International Tables Vol C Tables 4.2.6.8 and 6.1.1.4'
H H 0.0000 0.0000 'International Tables Vol C Tables 4.2.6.8 and 6.1.1.4'
O O 0.0106 0.0060 'International Tables Vol C Tables 4.2.6.8 and 6.1.1.4'
P P 0.1023 0.0942 'International Tables Vol C Tables 4.2.6.8 and 6.1.1.4'
Cl Cl 0.1484 0.1585 'International Tables Vol C Tables 4.2.6.8 and 6.1.1.4'
_platon_squeeze_void_nr                 1
_platon_squeeze_void_average_x          0.000
_platon_squeeze_void_average_y          0.500
_platon_squeeze_void_average_z          0.500
_platon_squeeze_void_volume             235
_platon_squeeze_void_count_electrons    61
_platon_squeeze_void_content            ' '

##
# This test data block in based on COD entry 4128210.
#
# The data block contains data items from the PLATON_SQUEEZE_VOID category
# incorrectly placed in several loops.
##
data_several_loops_[EXCLUDES_LOOP]
_chemical_formula_sum            'C44 H38 Cl O P Pt'
_chemical_formula_weight         844.25
_space_group_crystal_system      triclinic
_space_group_IT_number           2
_space_group_name_Hall           '-P 1'
_space_group_name_H-M_alt        'P -1'
_cell_angle_alpha                84.553(6)
_cell_angle_beta                 70.610(5)
_cell_angle_gamma                81.993(6)
_cell_formula_units_Z            2
_cell_length_a                   11.2330(15)
_cell_length_b                   13.617(2)
_cell_length_c                   13.798(2)
loop_
_space_group_symop_operation_xyz
'x, y, z'
'-x, -y, -z'
loop_
_atom_site_label
_atom_site_type_symbol
_atom_site_fract_x
_atom_site_fract_y
_atom_site_fract_z
_atom_site_U_iso_or_equiv
_atom_site_adp_type
_atom_site_occupancy
_atom_site_site_symmetry_order
_atom_site_calc_flag
_atom_site_refinement_flags_posn
_atom_site_refinement_flags_adp
Pt1 Pt 0.36342(2) 0.69582(2) 0.73498(2) 0.01299(5) Uani 1 1 d . .
P1 P 0.41004(8) 0.82494(6) 0.61798(6) 0.01360(17) Uani 1 1 d . .
C1 C 0.4376(4) 0.5837(3) 0.6294(3) 0.0249(8) Uani 1 1 d . .
H1 H 0.433220 0.519934 0.665828 0.037 Uiso 1 1 calc R U
H1A H 0.524538 0.591600 0.590839 0.037 Uiso 1 1 calc R U
H1B H 0.388980 0.588294 0.583246 0.037 Uiso 1 1 calc R U
H1C H 0.761(3) 0.307(3) 0.695(3) 0.008(8) Uiso 1 1 d . .
C2 C 0.1909(3) 0.6893(3) 0.7089(3) 0.0226(8) Uani 1 1 d . .
H2 H 0.207219 0.658276 0.645419 0.034 Uiso 1 1 calc R U
H2A H 0.149088 0.755288 0.705043 0.034 Uiso 1 1 calc R U
H2B H 0.137415 0.651209 0.764454 0.034 Uiso 1 1 calc R U
O1 O 0.5551(2) 0.5241(2) 0.8145(2) 0.0198(5) Uani 1 1 d . .
H1D H 0.535(4) 0.472(4) 0.834(4) 0.034(14) Uiso 1 1 d . .
C3 C 0.4752(3) 0.6047(3) 0.8398(2) 0.0157(7) Uani 1 1 d . .
C4 C 0.5139(3) 0.7020(3) 0.8126(2) 0.0144(7) Uani 1 1 d . .
C5 C 0.4029(3) 0.7727(3) 0.8573(2) 0.0133(6) Uani 1 1 d . .
C6 C 0.2965(3) 0.7180(2) 0.9067(2) 0.0131(6) Uani 1 1 d . .
C7 C 0.3391(3) 0.6136(3) 0.8906(2) 0.0146(7) Uani 1 1 d . .
C8 C 0.6452(3) 0.7272(3) 0.7660(3) 0.0154(7) Uani 1 1 d . .
C9 C 0.6897(3) 0.7934(3) 0.8140(3) 0.0198(7) Uani 1 1 d . .
H9 H 0.637774 0.818519 0.876328 0.024 Uiso 1 1 calc R U
C10 C 0.8100(3) 0.8217(3) 0.7694(3) 0.0232(8) Uani 1 1 d . .
H10 H 0.838171 0.866858 0.800997 0.028 Uiso 1 1 calc R U
C11 C 0.8897(3) 0.7825(3) 0.6769(3) 0.0244(8) Uani 1 1 d . .
H11 H 0.970423 0.802287 0.646568 0.029 Uiso 1 1 calc R U
C12 C 0.8488(3) 0.7149(3) 0.6307(3) 0.0246(8) Uani 1 1 d . .
H12 H 0.902404 0.687997 0.569750 0.030 Uiso 1 1 calc R U
C13 C 0.7274(3) 0.6866(3) 0.6752(3) 0.0203(7) Uani 1 1 d . .
H13 H 0.700612 0.640115 0.644127 0.024 Uiso 1 1 calc R U
C14 C 0.4009(3) 0.8811(3) 0.8589(3) 0.0145(7) Uani 1 1 d . .
C15 C 0.4409(3) 0.9429(3) 0.7690(2) 0.0152(7) Uani 1 1 d . .
C16 C 0.4351(3) 1.0447(3) 0.7800(3) 0.0197(7) Uani 1 1 d . .
H16 H 0.458899 1.086809 0.721417 0.024 Uiso 1 1 calc R U
C17 C 0.3948(3) 1.0846(3) 0.8760(3) 0.0205(7) Uani 1 1 d . .
H17 H 0.392638 1.152401 0.881384 0.025 Uiso 1 1 calc R U
C18 C 0.3580(3) 1.0230(3) 0.9636(3) 0.0198(7) Uani 1 1 d . .
H18 H 0.332082 1.049163 1.028182 0.024 Uiso 1 1 calc R U
C19 C 0.3597(3) 0.9223(3) 0.9552(2) 0.0162(7) Uani 1 1 d . .
H19 H 0.333149 0.881486 1.014400 0.019 Uiso 1 1 calc R U
C20 C 0.1697(3) 0.7600(3) 0.9738(3) 0.0169(7) Uani 1 1 d . .
C21 C 0.0839(3) 0.8211(3) 0.9364(3) 0.0205(7) Uani 1 1 d . .
H21 H 0.102857 0.833499 0.865771 0.025 Uiso 1 1 calc R U
C22 C -0.0302(3) 0.8646(3) 1.0025(3) 0.0261(8) Uani 1 1 d . .
H22 H -0.086151 0.906306 0.976048 0.031 Uiso 1 1 calc R U
C23 C -0.0599(3) 0.8455(3) 1.1076(3) 0.0248(8) Uani 1 1 d . .
H23 H -0.136558 0.873514 1.152118 0.030 Uiso 1 1 calc R U
C24 C 0.0250(3) 0.7845(3) 1.1463(3) 0.0228(8) Uani 1 1 d . .
H24 H 0.005324 0.771874 1.216938 0.027 Uiso 1 1 calc R U
C25 C 0.1395(3) 0.7419(3) 1.0802(3) 0.0197(7) Uani 1 1 d . .
H25 H 0.196126 0.701286 1.106887 0.024 Uiso 1 1 calc R U
C26 C 0.2631(3) 0.5303(3) 0.9403(3) 0.0161(7) Uani 1 1 d . .
C27 C 0.2016(3) 0.4827(3) 0.8897(3) 0.0220(8) Uani 1 1 d . .
H27 H 0.208844 0.501091 0.821554 0.026 Uiso 1 1 calc R U
C28 C 0.1288(4) 0.4070(3) 0.9412(3) 0.0274(9) Uani 1 1 d . .
H28 H 0.087786 0.374721 0.907204 0.033 Uiso 1 1 calc R U
C29 C 0.1176(4) 0.3798(3) 1.0430(3) 0.0266(9) Uani 1 1 d . .
H29 H 0.068596 0.329531 1.077076 0.032 Uiso 1 1 calc R U
C30 C 0.1784(4) 0.4268(3) 1.0939(3) 0.0271(9) Uani 1 1 d . .
H30 H 0.170981 0.408128 1.162109 0.033 Uiso 1 1 calc R U
C31 C 0.2513(3) 0.5025(3) 1.0425(3) 0.0210(8) Uani 1 1 d . .
H31 H 0.292304 0.534539 1.076779 0.025 Uiso 1 1 calc R U
C32 C 0.4979(3) 0.9051(3) 0.6619(2) 0.0158(7) Uani 1 1 d . .
H32 H 0.580428 0.869035 0.656779 0.019 Uiso 1 1 calc R U
H32A H 0.512691 0.962377 0.613802 0.019 Uiso 1 1 calc R U
C33 C 0.2800(3) 0.9098(3) 0.5967(3) 0.0166(7) Uani 1 1 d . .
C34 C 0.2695(3) 0.9346(3) 0.4987(3) 0.0196(7) Uani 1 1 d . .
H34 H 0.327391 0.904070 0.441538 0.024 Uiso 1 1 calc R U
C35 C 0.1721(4) 1.0051(3) 0.4874(3) 0.0254(8) Uani 1 1 d . .
H35 H 0.166557 1.022982 0.422164 0.031 Uiso 1 1 calc R U
C36 C 0.0840(4) 1.0487(3) 0.5720(3) 0.0274(9) Uani 1 1 d . .
H36 H 0.019072 1.095639 0.563635 0.033 Uiso 1 1 calc R U
C37 C 0.0916(4) 1.0228(3) 0.6696(3) 0.0259(8) Uani 1 1 d . .
H37 H 0.030383 1.050788 0.726776 0.031 Uiso 1 1 calc R U
C38 C 0.1902(3) 0.9554(3) 0.6817(3) 0.0212(8) Uani 1 1 d . .
H38 H 0.197005 0.940220 0.746927 0.025 Uiso 1 1 calc R U
C39 C 0.5144(3) 0.7879(3) 0.4918(2) 0.0169(7) Uani 1 1 d . .
C40 C 0.4665(4) 0.7369(3) 0.4324(3) 0.0205(7) Uani 1 1 d . .
H40 H 0.381301 0.726388 0.455967 0.025 Uiso 1 1 calc R U
C41 C 0.5447(4) 0.7018(3) 0.3390(3) 0.0276(9) Uani 1 1 d . .
H41 H 0.511657 0.669521 0.298908 0.033 Uiso 1 1 calc R U
C42 C 0.6724(4) 0.7149(3) 0.3053(3) 0.0311(10) Uani 1 1 d . .
H42 H 0.725420 0.690613 0.242834 0.037 Uiso 1 1 calc R U
C43 C 0.7213(4) 0.7640(3) 0.3642(3) 0.0293(9) Uani 1 1 d . .
H43 H 0.807321 0.771936 0.341538 0.035 Uiso 1 1 calc R U
C44 C 0.6426(3) 0.8015(3) 0.4575(3) 0.0217(8) Uani 1 1 d . .
H44 H 0.675409 0.835399 0.496453 0.026 Uiso 1 1 calc R U
Cl1 Cl 0.53191(9) 0.31650(7) 0.90197(7) 0.02464(19) Uani 1 1 d . .
Cl2 Cl 0.73500(12) 0.17033(13) 0.73593(11) 0.0627(4) Uani 1 1 d . .
loop_
_atom_type_symbol
_atom_type_description
_atom_type_scat_dispersion_real
_atom_type_scat_dispersion_imag
_atom_type_scat_source
Pt Pt -1.7033 8.3905 'International Tables Vol C Tables 4.2.6.8 and 6.1.1.4'
C C 0.0033 0.0016 'International Tables Vol C Tables 4.2.6.8 and 6.1.1.4'
H H 0.0000 0.0000 'International Tables Vol C Tables 4.2.6.8 and 6.1.1.4'
O O 0.0106 0.0060 'International Tables Vol C Tables 4.2.6.8 and 6.1.1.4'
P P 0.1023 0.0942 'International Tables Vol C Tables 4.2.6.8 and 6.1.1.4'
Cl Cl 0.1484 0.1585 'International Tables Vol C Tables 4.2.6.8 and 6.1.1.4'
loop_
_platon_squeeze_void_nr
_platon_squeeze_void_average_x
_platon_squeeze_void_average_y
_platon_squeeze_void_average_z
1 0.000 0.500 0.500
loop_
_platon_squeeze_void_volume
_platon_squeeze_void_count_electrons
_platon_squeeze_void_content
235 61 ' '
