#\#CIF1.1
##########################################################################
#               Crystallographic Information Format file 
#               Produced by PyCifRW module
# 
#  This is a CIF file.  CIF has been adopted by the International
#  Union of Crystallography as the standard for data archiving and 
#  transmission.
#
#  For information on this file format, follow the CIF links at
#  http://www.iucr.org
##########################################################################

data_0
loop_
  _cod_molecule_atom_symop_xyz
  _cod_molecule_atom_transl_y
  _cod_molecule_atom_transl_x
  _cod_molecule_atom_transl_z
  _cod_molecule_atom_mult_ratio
  _cod_molecule_atom_symmetry
  _cod_molecule_atom_label
  _cod_molecule_atom_orig_label
  _cod_molecule_atom_mult
  _cod_molecule_atom_symop_id
  _cod_molecule_atom_transl_id
   x,y,z  0  0  0  1  '1_555'  O1  O1  4  1  555
   x,y,z  0  0  0  1  '1_555'  O6  O6  4  1  555
   x,y,z  0  0  0  1  '1_555'  O7  O7  4  1  555
   x,y,z  0  0  0  1  '1_555'  O8  O8  4  1  555
   x,y,z  0  0  0  1  '1_555'  P1  P1  4  1  555
   x,y,z  0  -4  -1  1  '1_154'  'H2_1_154'  H2  4  1  154
   x,y,z  0  -3  -1  1  '1_254'  'H2_1_254'  H2  4  1  254
   x,y,z  0  -2  -1  1  '1_354'  'H2_1_354'  H2  4  1  354
   x,y,z  0  -1  -1  1  '1_454'  'H2_1_454'  H2  4  1  454
   x,y,z  0  0  -1  1  '1_554'  'H2_1_554'  H2  4  1  554
   x,y,z  0  1  -1  1  '1_654'  'H2_1_654'  H2  4  1  654
   x,y,z  0  2  -1  1  '1_754'  'H2_1_754'  H2  4  1  754
   x,y,z  0  3  -1  1  '1_854'  'H2_1_854'  H2  4  1  854
   x,y,z  0  4  -1  1  '1_954'  'H2_1_954'  H2  4  1  954
   -x,-y,-z  1  -4  0  1  '3_165'  'H2_3_165'  H2  4  3  165
   -x,-y,-z  1  -3  0  1  '3_265'  'H2_3_265'  H2  4  3  265
   -x,-y,-z  1  -2  0  1  '3_365'  'H2_3_365'  H2  4  3  365
   -x,-y,-z  1  -1  0  1  '3_465'  'H2_3_465'  H2  4  3  465
   -x,-y,-z  1  0  0  1  '3_565'  'H2_3_565'  H2  4  3  565
   -x,-y,-z  1  1  0  1  '3_665'  'H2_3_665'  H2  4  3  665
   -x,-y,-z  1  2  0  1  '3_765'  'H2_3_765'  H2  4  3  765
   -x,-y,-z  1  3  0  1  '3_865'  'H2_3_865'  H2  4  3  865
   -x,-y,-z  1  4  0  1  '3_965'  'H2_3_965'  H2  4  3  965
   x,y,z  0  -4  0  1  '1_155'  'O1_1_155'  O1  4  1  155
   x,y,z  0  -3  0  1  '1_255'  'O1_1_255'  O1  4  1  255
   x,y,z  0  -2  0  1  '1_355'  'O1_1_355'  O1  4  1  355
   x,y,z  0  -1  0  1  '1_455'  'O1_1_455'  O1  4  1  455
   x,y,z  0  1  0  1  '1_655'  'O1_1_655'  O1  4  1  655
   x,y,z  0  2  0  1  '1_755'  'O1_1_755'  O1  4  1  755
   x,y,z  0  3  0  1  '1_855'  'O1_1_855'  O1  4  1  855
   x,y,z  0  4  0  1  '1_955'  'O1_1_955'  O1  4  1  955
   -x,-y,-z  1  -4  -1  1  '3_164'  'O1_3_164'  O1  4  3  164
   -x,-y,-z  1  -3  -1  1  '3_264'  'O1_3_264'  O1  4  3  264
   -x,-y,-z  1  -2  -1  1  '3_364'  'O1_3_364'  O1  4  3  364
   -x,-y,-z  1  -1  -1  1  '3_464'  'O1_3_464'  O1  4  3  464
   -x,-y,-z  1  0  -1  1  '3_564'  'O1_3_564'  O1  4  3  564
   -x,-y,-z  1  1  -1  1  '3_664'  'O1_3_664'  O1  4  3  664
   -x,-y,-z  1  2  -1  1  '3_764'  'O1_3_764'  O1  4  3  764
   -x,-y,-z  1  3  -1  1  '3_864'  'O1_3_864'  O1  4  3  864
   -x,-y,-z  1  4  -1  1  '3_964'  'O1_3_964'  O1  4  3  964
   x,y,z  0  -4  -1  1  '1_154'  'O2_1_154'  O2  4  1  154
   x,y,z  0  -3  -1  1  '1_254'  'O2_1_254'  O2  4  1  254
   x,y,z  0  -2  -1  1  '1_354'  'O2_1_354'  O2  4  1  354
   x,y,z  0  -1  -1  1  '1_454'  'O2_1_454'  O2  4  1  454
   x,y,z  0  0  -1  1  '1_554'  'O2_1_554'  O2  4  1  554
   x,y,z  0  1  -1  1  '1_654'  'O2_1_654'  O2  4  1  654
   x,y,z  0  2  -1  1  '1_754'  'O2_1_754'  O2  4  1  754
   x,y,z  0  3  -1  1  '1_854'  'O2_1_854'  O2  4  1  854
   x,y,z  0  4  -1  1  '1_954'  'O2_1_954'  O2  4  1  954
   -x,-y,-z  1  -4  0  1  '3_165'  'O2_3_165'  O2  4  3  165
   -x,-y,-z  1  -3  0  1  '3_265'  'O2_3_265'  O2  4  3  265
   -x,-y,-z  1  -2  0  1  '3_365'  'O2_3_365'  O2  4  3  365
   -x,-y,-z  1  -1  0  1  '3_465'  'O2_3_465'  O2  4  3  465
   -x,-y,-z  1  0  0  1  '3_565'  'O2_3_565'  O2  4  3  565
   -x,-y,-z  1  1  0  1  '3_665'  'O2_3_665'  O2  4  3  665
   -x,-y,-z  1  2  0  1  '3_765'  'O2_3_765'  O2  4  3  765
   -x,-y,-z  1  3  0  1  '3_865'  'O2_3_865'  O2  4  3  865
   -x,-y,-z  1  4  0  1  '3_965'  'O2_3_965'  O2  4  3  965
   x,y,z  0  -4  -1  1  '1_154'  'O3_1_154'  O3  4  1  154
   x,y,z  0  -3  -1  1  '1_254'  'O3_1_254'  O3  4  1  254
   x,y,z  0  -2  -1  1  '1_354'  'O3_1_354'  O3  4  1  354
   x,y,z  0  -1  -1  1  '1_454'  'O3_1_454'  O3  4  1  454
   x,y,z  0  0  -1  1  '1_554'  'O3_1_554'  O3  4  1  554
   x,y,z  0  1  -1  1  '1_654'  'O3_1_654'  O3  4  1  654
   x,y,z  0  2  -1  1  '1_754'  'O3_1_754'  O3  4  1  754
   x,y,z  0  3  -1  1  '1_854'  'O3_1_854'  O3  4  1  854
   x,y,z  0  4  -1  1  '1_954'  'O3_1_954'  O3  4  1  954
   -x,-y,-z  1  -4  0  1  '3_165'  'O3_3_165'  O3  4  3  165
   -x,-y,-z  1  -3  0  1  '3_265'  'O3_3_265'  O3  4  3  265
   -x,-y,-z  1  -2  0  1  '3_365'  'O3_3_365'  O3  4  3  365
   -x,-y,-z  1  -1  0  1  '3_465'  'O3_3_465'  O3  4  3  465
   -x,-y,-z  1  0  0  1  '3_565'  'O3_3_565'  O3  4  3  565
   -x,-y,-z  1  1  0  1  '3_665'  'O3_3_665'  O3  4  3  665
   -x,-y,-z  1  2  0  1  '3_765'  'O3_3_765'  O3  4  3  765
   -x,-y,-z  1  3  0  1  '3_865'  'O3_3_865'  O3  4  3  865
   -x,-y,-z  1  4  0  1  '3_965'  'O3_3_965'  O3  4  3  965
   x,y,z  1  -4  0  1  '1_165'  'O4_1_165'  O4  4  1  165
   x,y,z  1  -3  0  1  '1_265'  'O4_1_265'  O4  4  1  265
   x,y,z  1  -2  0  1  '1_365'  'O4_1_365'  O4  4  1  365
   x,y,z  1  -1  0  1  '1_465'  'O4_1_465'  O4  4  1  465
   x,y,z  1  0  0  1  '1_565'  'O4_1_565'  O4  4  1  565
   x,y,z  1  1  0  1  '1_665'  'O4_1_665'  O4  4  1  665
   x,y,z  1  2  0  1  '1_765'  'O4_1_765'  O4  4  1  765
   x,y,z  1  3  0  1  '1_865'  'O4_1_865'  O4  4  1  865
   x,y,z  1  4  0  1  '1_965'  'O4_1_965'  O4  4  1  965
   -x,-y,-z  0  -4  -1  1  '3_154'  'O4_3_154'  O4  4  3  154
   -x,-y,-z  0  -3  -1  1  '3_254'  'O4_3_254'  O4  4  3  254
   -x,-y,-z  0  -2  -1  1  '3_354'  'O4_3_354'  O4  4  3  354
   -x,-y,-z  0  -1  -1  1  '3_454'  'O4_3_454'  O4  4  3  454
   -x,-y,-z  0  0  -1  1  '3_554'  'O4_3_554'  O4  4  3  554
   -x,-y,-z  0  1  -1  1  '3_654'  'O4_3_654'  O4  4  3  654
   -x,-y,-z  0  2  -1  1  '3_754'  'O4_3_754'  O4  4  3  754
   -x,-y,-z  0  3  -1  1  '3_854'  'O4_3_854'  O4  4  3  854
   -x,-y,-z  0  4  -1  1  '3_954'  'O4_3_954'  O4  4  3  954
   x,y,z  0  -4  -1  1  '1_154'  'O5_1_154'  O5  4  1  154
   x,y,z  0  -3  -1  1  '1_254'  'O5_1_254'  O5  4  1  254
   x,y,z  0  -2  -1  1  '1_354'  'O5_1_354'  O5  4  1  354
   x,y,z  0  -1  -1  1  '1_454'  'O5_1_454'  O5  4  1  454
   x,y,z  0  0  -1  1  '1_554'  'O5_1_554'  O5  4  1  554
   x,y,z  0  1  -1  1  '1_654'  'O5_1_654'  O5  4  1  654
   x,y,z  0  2  -1  1  '1_754'  'O5_1_754'  O5  4  1  754
   x,y,z  0  3  -1  1  '1_854'  'O5_1_854'  O5  4  1  854
   x,y,z  0  4  -1  1  '1_954'  'O5_1_954'  O5  4  1  954
   -x,-y,-z  1  -4  0  1  '3_165'  'O5_3_165'  O5  4  3  165
   -x,-y,-z  1  -3  0  1  '3_265'  'O5_3_265'  O5  4  3  265
   -x,-y,-z  1  -2  0  1  '3_365'  'O5_3_365'  O5  4  3  365
   -x,-y,-z  1  -1  0  1  '3_465'  'O5_3_465'  O5  4  3  465
   -x,-y,-z  1  0  0  1  '3_565'  'O5_3_565'  O5  4  3  565
   -x,-y,-z  1  1  0  1  '3_665'  'O5_3_665'  O5  4  3  665
   -x,-y,-z  1  2  0  1  '3_765'  'O5_3_765'  O5  4  3  765
   -x,-y,-z  1  3  0  1  '3_865'  'O5_3_865'  O5  4  3  865
   -x,-y,-z  1  4  0  1  '3_965'  'O5_3_965'  O5  4  3  965
   x,y,z  0  -4  0  1  '1_155'  'O6_1_155'  O6  4  1  155
   x,y,z  0  -3  0  1  '1_255'  'O6_1_255'  O6  4  1  255
   x,y,z  0  -2  0  1  '1_355'  'O6_1_355'  O6  4  1  355
   x,y,z  0  -1  0  1  '1_455'  'O6_1_455'  O6  4  1  455
   x,y,z  0  1  0  1  '1_655'  'O6_1_655'  O6  4  1  655
   x,y,z  0  2  0  1  '1_755'  'O6_1_755'  O6  4  1  755
   x,y,z  0  3  0  1  '1_855'  'O6_1_855'  O6  4  1  855
   x,y,z  0  4  0  1  '1_955'  'O6_1_955'  O6  4  1  955
   -x,-y,-z  1  -4  -1  1  '3_164'  'O6_3_164'  O6  4  3  164
   -x,-y,-z  1  -3  -1  1  '3_264'  'O6_3_264'  O6  4  3  264
   -x,-y,-z  1  -2  -1  1  '3_364'  'O6_3_364'  O6  4  3  364
   -x,-y,-z  1  -1  -1  1  '3_464'  'O6_3_464'  O6  4  3  464
   -x,-y,-z  1  0  -1  1  '3_564'  'O6_3_564'  O6  4  3  564
   -x,-y,-z  1  1  -1  1  '3_664'  'O6_3_664'  O6  4  3  664
   -x,-y,-z  1  2  -1  1  '3_764'  'O6_3_764'  O6  4  3  764
   -x,-y,-z  1  3  -1  1  '3_864'  'O6_3_864'  O6  4  3  864
   -x,-y,-z  1  4  -1  1  '3_964'  'O6_3_964'  O6  4  3  964
   x,y,z  0  -4  0  1  '1_155'  'O7_1_155'  O7  4  1  155
   x,y,z  0  -3  0  1  '1_255'  'O7_1_255'  O7  4  1  255
   x,y,z  0  -2  0  1  '1_355'  'O7_1_355'  O7  4  1  355
   x,y,z  0  -1  0  1  '1_455'  'O7_1_455'  O7  4  1  455
   x,y,z  0  1  0  1  '1_655'  'O7_1_655'  O7  4  1  655
   x,y,z  0  2  0  1  '1_755'  'O7_1_755'  O7  4  1  755
   x,y,z  0  3  0  1  '1_855'  'O7_1_855'  O7  4  1  855
   x,y,z  0  4  0  1  '1_955'  'O7_1_955'  O7  4  1  955
   -x,-y,-z  1  -4  -1  1  '3_164'  'O7_3_164'  O7  4  3  164
   -x,-y,-z  1  -3  -1  1  '3_264'  'O7_3_264'  O7  4  3  264
   -x,-y,-z  1  -2  -1  1  '3_364'  'O7_3_364'  O7  4  3  364
   -x,-y,-z  1  -1  -1  1  '3_464'  'O7_3_464'  O7  4  3  464
   -x,-y,-z  1  0  -1  1  '3_564'  'O7_3_564'  O7  4  3  564
   -x,-y,-z  1  1  -1  1  '3_664'  'O7_3_664'  O7  4  3  664
   -x,-y,-z  1  2  -1  1  '3_764'  'O7_3_764'  O7  4  3  764
   -x,-y,-z  1  3  -1  1  '3_864'  'O7_3_864'  O7  4  3  864
   -x,-y,-z  1  4  -1  1  '3_964'  'O7_3_964'  O7  4  3  964
   x,y,z  0  -4  0  1  '1_155'  'O8_1_155'  O8  4  1  155
   x,y,z  0  -3  0  1  '1_255'  'O8_1_255'  O8  4  1  255
   x,y,z  0  -2  0  1  '1_355'  'O8_1_355'  O8  4  1  355
   x,y,z  0  -1  0  1  '1_455'  'O8_1_455'  O8  4  1  455
   x,y,z  0  1  0  1  '1_655'  'O8_1_655'  O8  4  1  655
   x,y,z  0  2  0  1  '1_755'  'O8_1_755'  O8  4  1  755
   x,y,z  0  3  0  1  '1_855'  'O8_1_855'  O8  4  1  855
   x,y,z  0  4  0  1  '1_955'  'O8_1_955'  O8  4  1  955
   -x,-y,-z  1  -4  -1  1  '3_164'  'O8_3_164'  O8  4  3  164
   -x,-y,-z  1  -3  -1  1  '3_264'  'O8_3_264'  O8  4  3  264
   -x,-y,-z  1  -2  -1  1  '3_364'  'O8_3_364'  O8  4  3  364
   -x,-y,-z  1  -1  -1  1  '3_464'  'O8_3_464'  O8  4  3  464
   -x,-y,-z  1  0  -1  1  '3_564'  'O8_3_564'  O8  4  3  564
   -x,-y,-z  1  1  -1  1  '3_664'  'O8_3_664'  O8  4  3  664
   -x,-y,-z  1  2  -1  1  '3_764'  'O8_3_764'  O8  4  3  764
   -x,-y,-z  1  3  -1  1  '3_864'  'O8_3_864'  O8  4  3  864
   -x,-y,-z  1  4  -1  1  '3_964'  'O8_3_964'  O8  4  3  964
   x,y,z  0  -4  0  1  '1_155'  'P1_1_155'  P1  4  1  155
   x,y,z  0  -3  0  1  '1_255'  'P1_1_255'  P1  4  1  255
   x,y,z  0  -2  0  1  '1_355'  'P1_1_355'  P1  4  1  355
   x,y,z  0  -1  0  1  '1_455'  'P1_1_455'  P1  4  1  455
   x,y,z  0  1  0  1  '1_655'  'P1_1_655'  P1  4  1  655
   x,y,z  0  2  0  1  '1_755'  'P1_1_755'  P1  4  1  755
   x,y,z  0  3  0  1  '1_855'  'P1_1_855'  P1  4  1  855
   x,y,z  0  4  0  1  '1_955'  'P1_1_955'  P1  4  1  955
   -x,-y,-z  1  -4  -1  1  '3_164'  'P1_3_164'  P1  4  3  164
   -x,-y,-z  1  -3  -1  1  '3_264'  'P1_3_264'  P1  4  3  264
   -x,-y,-z  1  -2  -1  1  '3_364'  'P1_3_364'  P1  4  3  364
   -x,-y,-z  1  -1  -1  1  '3_464'  'P1_3_464'  P1  4  3  464
   -x,-y,-z  1  0  -1  1  '3_564'  'P1_3_564'  P1  4  3  564
   -x,-y,-z  1  1  -1  1  '3_664'  'P1_3_664'  P1  4  3  664
   -x,-y,-z  1  2  -1  1  '3_764'  'P1_3_764'  P1  4  3  764
   -x,-y,-z  1  3  -1  1  '3_864'  'P1_3_864'  P1  4  3  864
   -x,-y,-z  1  4  -1  1  '3_964'  'P1_3_964'  P1  4  3  964
   x,y,z  1  -4  0  1  '1_165'  'P2_1_165'  P2  4  1  165
   x,y,z  1  -3  0  1  '1_265'  'P2_1_265'  P2  4  1  265
   x,y,z  1  -2  0  1  '1_365'  'P2_1_365'  P2  4  1  365
   x,y,z  1  -1  0  1  '1_465'  'P2_1_465'  P2  4  1  465
   x,y,z  1  0  0  1  '1_565'  'P2_1_565'  P2  4  1  565
   x,y,z  1  1  0  1  '1_665'  'P2_1_665'  P2  4  1  665
   x,y,z  1  2  0  1  '1_765'  'P2_1_765'  P2  4  1  765
   x,y,z  1  3  0  1  '1_865'  'P2_1_865'  P2  4  1  865
   x,y,z  1  4  0  1  '1_965'  'P2_1_965'  P2  4  1  965
   -x,-y,-z  0  -4  -1  1  '3_154'  'P2_3_154'  P2  4  3  154
   -x,-y,-z  0  -3  -1  1  '3_254'  'P2_3_254'  P2  4  3  254
   -x,-y,-z  0  -2  -1  1  '3_354'  'P2_3_354'  P2  4  3  354
   -x,-y,-z  0  -1  -1  1  '3_454'  'P2_3_454'  P2  4  3  454
   -x,-y,-z  0  0  -1  1  '3_554'  'P2_3_554'  P2  4  3  554
   -x,-y,-z  0  1  -1  1  '3_654'  'P2_3_654'  P2  4  3  654
   -x,-y,-z  0  2  -1  1  '3_754'  'P2_3_754'  P2  4  3  754
   -x,-y,-z  0  3  -1  1  '3_854'  'P2_3_854'  P2  4  3  854
   -x,-y,-z  0  4  -1  1  '3_954'  'P2_3_954'  P2  4  3  954
   x,y,z  0  -4  -1  1  '1_154'  'Al1_1_154'  Al1  4  1  154
   x,y,z  0  -3  -1  1  '1_254'  'Al1_1_254'  Al1  4  1  254
   x,y,z  0  -2  -1  1  '1_354'  'Al1_1_354'  Al1  4  1  354
   x,y,z  0  -1  -1  1  '1_454'  'Al1_1_454'  Al1  4  1  454
   x,y,z  0  0  -1  1  '1_554'  'Al1_1_554'  Al1  4  1  554
   x,y,z  0  1  -1  1  '1_654'  'Al1_1_654'  Al1  4  1  654
   x,y,z  0  2  -1  1  '1_754'  'Al1_1_754'  Al1  4  1  754
   x,y,z  0  3  -1  1  '1_854'  'Al1_1_854'  Al1  4  1  854
   x,y,z  0  4  -1  1  '1_954'  'Al1_1_954'  Al1  4  1  954
   -x,-y,-z  1  -4  0  1  '3_165'  'Al1_3_165'  Al1  4  3  165
   -x,-y,-z  1  -3  0  1  '3_265'  'Al1_3_265'  Al1  4  3  265
   -x,-y,-z  1  -2  0  1  '3_365'  'Al1_3_365'  Al1  4  3  365
   -x,-y,-z  1  -1  0  1  '3_465'  'Al1_3_465'  Al1  4  3  465
   -x,-y,-z  1  0  0  1  '3_565'  'Al1_3_565'  Al1  4  3  565
   -x,-y,-z  1  1  0  1  '3_665'  'Al1_3_665'  Al1  4  3  665
   -x,-y,-z  1  2  0  1  '3_765'  'Al1_3_765'  Al1  4  3  765
   -x,-y,-z  1  3  0  1  '3_865'  'Al1_3_865'  Al1  4  3  865
   -x,-y,-z  1  4  0  1  '3_965'  'Al1_3_965'  Al1  4  3  965
 
loop_
  _tcod_file_id
  _tcod_file_name
  _tcod_file_md5sum
  _tcod_file_sha1sum
  _tcod_file_URI
  _tcod_file_role
  _tcod_file_contents
  _tcod_file_content_encoding
   0  '0/_aiidasubmit.sh'  82abfd757c8f758ab140dad18bfefc11
   7cb42831f2111cf9e4ea046045593fa4fb6629a5
   ?
   script
  
;H4sICMYnf1QC/3RtcDN4NnNtUwBdUMtSwzAMvPsrTHvIyXEePdAOYQa4cId7x0lUYpLYwZIZ+HuU
MpSkB3tGu6uVtNsbXVuna4OdENuXx4fXp2eplPMqwEeECAvw3dfKmRGqjbG2Naq83W0W9BuQighB
gftcwD7SFKk6YtNBGwfmkVoGU/qihQxC8OFKxdiVyvkWsMqXCBnsUU3cMZMrjiwvm2WHMjtkmRBi
9LO1HLxppXUEwzhZvUvztLxwfIDUnR9BjxD6b9S/+MkOgKv+xreKvB9QF/tiL0TCXiG6RCbKTfzn
/FZGGBr930Ss7TVvPShsgp0IdWNPR55DEGaTOUp15icTcMbuZHLOPbU85f6v4CQTWVxKjiwRP+cl
2QLVAQAA
;
  
  
   gzip+base64
   1  0/aiida.in  b6ba524b9c9139ad09956d783d103c12
   2b6feae22d5b16ca76b9499210c82d9be0a6ef74
   ?
   input
  
;H4sICMYnf1QC/3RtcGdIVnVKdQCtWmtz27rR/q5fgZnTGcmTiCIAgiDyvm3HlpOx2yT25NLp9JxT
Dk3REluKVEnKjvIhv727AHiTKH/I1JOJxN1nF4vF3kD7l/n/9Gfyyx+uozp5Q5hL+ZyyOQuIK9/g
P5+8cuGHzD5H9WsC9Osk1rAL8gcQ+5Q8pVVa5G+IooozTfv66f0b8phmyZvFYrEptskiLlZJuaie
8nmZ7IoqrYsyTSokL+L0cUEXrov/qKt/HKChov/1Hie/kC+btNKmEfiMnqI0ix7wISf1JiHL8lDV
UZYV6zLabQ7kbpfkBBwTPURVQmbLu+uL16BkU9c72Nrz87MTDyWcPKkXDqySENjhOs2jjKxAnjwW
JawAayZ5XR5Ax3NSJmRXFk/pKlmRhwO5/bosyV+KfQky1etmjX9ZgpPu49IpyvXCsftIzDa20YE8
JGRfgZbnFJYwO6niFFZKH9OYxMV2u8/T+kCqgmRFviZRBRpg7V1Skqiuy/RhX8MRokvW6RNsuS60
Ers4ico6jWGtx7LYkudNGm+QDTr01vROioc6SvNkhdYhNbRHOcmKYhdOwt3+IQujfb0pyjCPtslk
er+JcthGlG9ek8/OdDL9EJVlASH2F3z4lOTRfpXm9vFDlFZFnif7p+Q1+RtQjMIqidHwsE7rLJn8
3+TXmx/8x8fZ8uYH+3HxQ/z4iM+/O5fZPRDufgQ/bl6TiBR5Ml+l2yTHuMXtZfttmhe7TVHtNpAF
oCi0Ww/Tqton5PRHdRDcTvi4z7IjyPQyBu8MQyqNI9itsZosp52SXbQGJWlZ1UMl1JX8CJVFxyBE
eR3qqYANjRgt/A5zSKJyZFuQ2HBmYbxJtmBqFkLYbvdZFG6LNIEAarc2WwpyQ33ykZGLXy+zm3tG
7gLy+3REtNpvB17RkpJcZigMQvdsTOo5SdebbpucMYeCI6pdFCfhuiz2u/D2S5jvtw9Jfx8U3FAd
ttsEkiyMkwxDpK5TiPnuZ1vkRZyleRr3sH3F+kBvIjzQ6fyesEM+fRE5/4D7uieUMLrICQU0xm4d
xmUS6fgEyU2x6tnw+ebt+7+/nys5MVZG+TpLwiiD+DuJNNfRR9LBHpI6Og1I4VBPujPqXgzA62i7
fVFn43EsEVX4jz7Ms5Asydf1JoxG4kU6gQz4jF0MoQ8jUOo6nh+ovokWHY+hfcf1A3fmNdhtElX7
MoG0rcMyeczyKtRFDwPbdeUIqk62UOGiGp51aCu/s3OA24BDw230zaaAcgJ+HgYF1sAczizqXMLh
NjhVDuxZ4MLFdrfHYDRSsAmomKi6CYoPl5++9GG6kMZFltmCYTNI46AfpygMrYIq5UcX0xPJMlnt
+4IgiWH35b3yj6QfhtLbAlaEmChDW7QqLX19e/nh7uM1mV0l5TopN8XjoxEfSmNlhlw2gQ/ltEyh
xhK7dB9Y1SXYB+4duMIY+V5xsHGTZKsyjf+tl+HDZTrpCtzfbNNIfw78Y2kXpVfp42OZh9H2IR0J
kC5ELK5/+iuYc+KkdaTxnjkyouFRXMOkA9udjsoPSsD0t2fo0FFeddgyWqXWZ1ifNtBqI5iSCDFH
AF3pFFlBMY+7uJuiE+ePRbyvSJVEGSRHvX9IxtaoD7t+vH4o/vpbNAJ7jp4Sk6Ma5kjTjhqcycLo
KfwUJv/Zp0+wZF5DrDguD8ZgVbreRrcLmJFutTpXYAoNYVm6hcq56dIR6sZZTJOLZH4O9O++In4W
01PkjYOyniJ1FtLpYfQYdNKsSKD4iaqjYtTVo1FYu15Tj5JvuxpK/0NVlDtoQEXyCCOgDvbtXvvc
Y+oUVZZ2kPpiVnaUDF5G4cJO4HkvoGyMVdDZ55BoaYkN/hgPU2icVBWkF8yPWaVz6/L68urzcf7q
ImNk7cyNlRESoO9QpJQZ6DuGrnDYqw/WiToYHB+PaByGiWtzKi9qYvN4NT3FV3GZ7no1dheVMDhA
0uzSXbI6xr8L8SbV//ElOwZV6fdkEADEoWdAaW+mgHZ5BpT3QWJiq632Rbfj3nrU4UKegfWUzR3f
9VpYVsHiUJjN2WPgtUtSPgsuzgB7ZfHlwt9Jr4tilWPMFI8wMdehHtTAaFeIl2CltghggduHbQ6r
slgnEK44rDXdOC5y6C99HFTjMv12XDhx7O+jTI6HGAW6F1R2lpEjIJPJXf4KjMcRFBgCV6u6akay
DtLwklX42brBHJ90z8KKh6qBucrvwz6Fj9jDyk6TiT1d8kdg6/4tBLwfDGyrNuljvUiqFSZT3sFc
9xRV7Yfx/v84ng6c0TV7u7gOsHfVf1Z9lLk06OEALxRwyYSKE5Nn8kdCF7/+Vv2T/XP2roD/L17N
YAkh+f0FPL3ikDsquP8d7rZ4l73/o0G9Yu9iBC/4IP6eRx3lMNAxDivbXEB3cp9Nhi1h6ElzOMru
v4eqizoa3jG5xzpUvYFz3hTZCosAfK2aonT7J/ZbNbvVA+gqXO13ejpLQv0m4ujyRynnoPLXrADP
/W4EcJQ0k0ao3zjAz7qiEDz4mmaIBYK95MORrc3N6J7N6MUit6s3b39wkMNkq+Cyrd9lwJRbPONF
DeRx9NEvLvInSCHYR2VflyQl3laS1ZvJdPyaNyUwhMCFffqhveRNSbyBqxAOQwWZdpe/6SSKoVut
cE3kmBdVVbTP0n21MAG3WN6+m69SXaoi88YKdghSibNCDS3rQPAquCLTAZ9Y86E3ew41r0/Ax+7c
9efQ1SeTy5G9EtNSJrerNwS1PULVSSAECBVMGnF8P6dgLnrjyTce/wexRhN8cdEcGb6xwofk5BY2
eC/TelEPcCGcThhV4bfD98n022tyeE2+TyfT+bdXdMHg0XzMv+OnpsPDAQnw8G1umAfz+X2uMXYZ
GGW30I4g6qI8rYowix6S7JT8NaR0jMrYGJXzUQ2jWDqKZXxyT6EoMenDDQ2/cNd84R6d+fjFpT7c
QfGLz+0XTZncM8QLZfAeDQyeKo6UOeKCRkDhFyRxD0UvM71oI8ICZb9wbhd1PSvKvEaUSRS9o3ox
uKXgZ2A+mQ85ps1wPTmjRhKuMpRZUbhzc5BFi7lvZQJhZTxlKC6sTvU3Cgvg+925sV3Lcu0mdSTD
5cyu4fJWxFXNypRKI+2hDDMyvmtllZWlVhmEpjYeSfoedid6BnvNp7RowRs0urX5qrSOyZ2PLUnY
lezKwm+spa51E7MsCitqOdmzUHLrK69Z0npKBY2XISjAI5O7AC1rlrOW8mDWc4PBC9Z5VmjffMQT
9eWMaxH32K9WF21N1y9bliik346gmfYzsLFLmVHmujZ2mA+EyZKZLSGWMj6TF2bhJr5sxAUza5/A
eFviuSupw5KKAN/doBZpYxw86lvPtGp8kILzpr6OHOx4rhHTJ9YeuTKmeVYlnAgMiUs8cWXSgcKp
Ghu5VS7FzEZ5s5rOiY+slxOCHUWXawmtJ/H5tC6dVCR9ow+/nZIOp6TvfdLXEIsLtDhdUvscuLSV
W7w2pNUuw7eIOE32ATiuhI9ZtO4Tu5cjmlX1eUUc73dRHg9sQq1Y2B+KTJc3IZRrz0IGHvhDmWID
FUKaUuDimX+FqkhWxCGU3JvqpnxIOpTTwzWGOjXnArXDFCx1KqmLG/MkMwXBUUKxQEvicSsl7KKe
rqs90ctMVzfqB6b4KQnBoQPZ92WTFgqle0J3uqr5wjcy0pVN/PKgSUPJT4RuGL7MYBDcUkiKcN9T
ukKQr3B6RM+NnwB6YypfEJj0UFgntH7aVl8e0FOjMAGUEaIOldAUdCp4QjXVTOIxDIUg+D2Td3i3
bjORNTHtcQFJciQEhU5Q26R8ZRdyFZPNQv6pjMSx3tdJ7KiAGt8x2lR1uImcGgcVzpcuNcYp4Zt1
RNAUPaiJx+tgaRO+ME3NE8zsjHq+1+zHFJSe0MfJDb0EsOIeOkOA83Em1UFwcjQ39AoWkC5ABXcV
ljXhnYMuAcSCAA3xBZ6OZONQrK2SS5MmXHGTJVRAuxa2+LHW5msQWYL2a5NbaDPHXqACT5/CiCFv
AcoEgDhkHsY7DcahWLAD4JoK6XmB9jCck/KMJUFwagkD7wWMYSgxiZkoOcPTFqeWsCtMMvSb52oo
9c9AsQsEyrZ4Ryi40Sttia3IlPbrgLWEgyVSUUxPqBOA5gr9zkd8wtGSQADbB/cCVARyHIqdRTFu
5x1fUmo6K/WY8Q42GXFsiodOES6a4lFsnUqAQRTO6MQU7wq3SiVWBm2EwEgcg0KvgtSG7DRl0fcD
e1KUUW4OCDrZiVvEJYpxH1wqAjSJGrdDFJwYI670EsiXbqAHBV+NY6EJUocxZWYAye3w2ZYeSDZ1
lNSQa2yJrwu4iyHPlK97vH8mg9g1rsCFxDpDAcVYcC4x2Vs0XCdBQBm6MfDPYPuduN+5epTea7YB
EK6xupeaixM0yih7iZ9u28ba8c3NdrIkSzMCmwGfTG/zOilz/Rocbt1f8K8EKvK3IgOcffAc5vhO
QKJ8RXwHtut408kNudGTl2v//1k9H8lHPbNQa9XP6rkjd3q48rW2n7fnMsPf2GKbxAlNUO+nNd2T
eywyTA+WHvtpPTZu1gkcp/316XCYC+mLXPYilw+4mtFelekLvIHcAKf/YEHPdtCyYSzDhoppSGG4
wjL+54YuWrpn6UGf7krHH+CZxbtHeEt3lcMtXQzo0qGWLgn+/t5r9fgDOhwU4aGQQtvU6PKOeW7g
BAM5atcJHDmQoa1dDZ5butE03KMgOFD2lKkhI9AW+EfW0VOm27rZSnKr0m/9RgeMniOChmGUGest
05iup15keO22jK9vumPAu3krwrVIu2OuGi+Zo+70teaZmDEMuymPNZuCoQWmLT072dUElv2OcdVj
eMhA7DGnh18eK2rxywEe5UfIQAJNyyY2PUcPCgdL1/OSPU/fmAPQcUYj8bbH4H2JPkMYS6+HHIgm
xHNiRIxJUFBwsDtYuh6crB5q9JgNjDGsxNU5iT7DOBuUDDjS4Yj3iNGliUzCaSptkqbrCUqjhaOH
ULPnY4ZZ2Upc9Rh+X+LqWAKVDDhQWREviNHVHJxnTdJ0PUm1WS0bZ4wzrMTVOYkTBioZcMzBwWhj
dBmTWi8ZOg5UjR63c8YxQy/QSFz1GF5fos/Q7kMlA449OIF/vYTj01FWNYzrk3QD7DGnh3/bw4sB
/u0w3UB+hNxvhg9FvjrbC0eZrM8c9rMBC2apOsrjpE/r2hrWJx9tgtubvg4cJk2bo3A/4x1JWJLs
SMySlCVBhZRWV4/kGRQTHYk3/QevgB2ZGqTnG5Iu32ZZyWSPRi1N9WhBU15xjO7RucE2tLa4B6xt
Yke2tK3jSGFT1fQGA/z1qCmNtn4HyiBsbe4el+1jU1xhKcqMfFc+lTQIWwHNIzNJDQKusindFrcG
YeuTeeQm5VCAW4G29DQIWz3Mo84hsyWvrWO2MDQIm9vmUce+FhDK7qFN2wZhM08/dilnXNKmU/f4
tn3sp8RmNOyvX+TevMi9HHCHOTPkNUkTXt+M02/O4Yd0M0VeA9oEHiSDnUYCvPr5En/LJPTrXCqU
Q5t4usOo9PGVB7gF5gUX/gsCXWWo9B2/CTSdu4ihBig9g/HhuYk+yEkWCk80OB9xTBocQ5w5IdBF
Q1+0uABxwjU4r8Fd4x5Y6HutbQJt8/WvVODe7fDmTGHdvj4VaJz+DQ2VrqP6fyELt71wVaT454Yw
wsnFZ7j9BEy6+hdfAf7F0X8BVvtMNzwvAAA=
;
  
  
   gzip+base64
   2  '0/.aiida/job_tmpl.json'  9f64a3a001e80363fe3cb81ddc560042
   c3bda3b3dac75f14e2cecf5203e1727c8dc5d51c
   ?
   input
  
;H4sICMYnf1QC/3RtcEJ1a1ZfSwB1UV1PAyEQ/CsXnqXnqQ/Wv2INobD1sLCQBfxI4393wXp6TXy5
S2Zmd2eGk3AhRSoqf2QF+OooYgAs4mEoVOFqEC/RoTo4D5kxrN4zlggSoFUF3ptShGirh8FHbQeH
BXxIbrzbTJvbHe7wzNYMwzjHAGMAOn7k8RvvqxdRX2GilSVGn8eb7c1W8MFcLBAp1AHaPe2c1RtG
RDe4v3B++mwjZgarYi2pFpV0mdug6igfIskrmdwUTsBqTc+vLHgU7JwqNkhiar+pfVa+M5nx1yLX
hMcxAXmZDblU8mjcoTVWoPuTkpPLLkiaMoNPiz2OEOkfd8wt7tKq7t5I3QdXlM5qjt4yetA+w7J4
9WoL1SNftMhI2xf0u3rT3hsfzVFlMBFtm53ur6/PJRPkWMm02ZPAGlTQZnbYT0ys6VByiaLJivP+
8I1uL0LAVaHee/jjqS1eGZK393fnJ+cIa68OxecXukhNBbICAAA=
;
  
  
   gzip+base64
   3  0/.aiida/calcinfo.json  aec66bb94b31857ca479ff02f6a803db
   4e4079b2cf14f26f30958e65c4f2465e33498105
   ?
   input
  
;H4sICMYnf1QC/3RtcDBBS0RMNABlj+EKwjAMhF9F+tuMualDX0WkxDbTQNeNtBVFfHc7HYLz530X
cncPJRSF6UracYhqvzgoZLZY9Cmq5WISJDIKHcyFbHIkEKLNF0W8xX8jX7+NY3aEuj6SNv1w/yaM
3PUG3T/+vNUeO8rot8rn88ybmpnOOvakBxTswnsGQAoEA4mDTAPJ1GeaG9ifHbXsaF6A/SyD/RiR
EtuRlesNUo07KE1lYb2qWziVbQnN1lbY7oxt6pN6vgCudfAhWQEAAA==
;
  
  
   gzip+base64
   4  0/aiida.err  d41d8cd98f00b204e9800998ecf8427e
   da39a3ee5e6b4b0d3255bfef95601890afd80709
   ?
   output
   ''
   .
   5  0/aiida.out  cea462a356b150d9c6f5468fbab725c1
   290b23a67fb98d4f1a08006fab29ec89719e2a08
   ?
   output
  
;H4sICMYnf1QC/3RtcGljVk5QMwCdWltz2ziyftevwJvkmpgmAAIgZi+nfEnK3p3YriSztbUzsyxa
oi2epUgtSSVRHvLbtxsASVCi/JA8WGL3141Go2+gskrbNKGh+TcrqmqbzJLt7qlI0l27ruqkTDfZ
bP64TkvyCf6s35CPwXw2f5/WddW+IX/Dhw9Zme5Weeke36d5U5VltvucvSH/AIpV2GTLNq/KpM3b
Ipv9afbb7Xf+/X5xffudfT/7Lr7f4/MfwWXxCISH7/H32zckJVWZna/yTVY2IJsWJC12m7ystuuq
2a7TFhUl/1/tauAledPsMnL8Tw8Q3E7yvCuKA8j8ctmm5LreN21aFNVLnW7X+TKF3VqryfV8ULJN
X0BJXjftWAkNFT9AFekhCFGRj9pmdbKq8iNUQAF58TGkYcxUaI4oFpwNop8r8MXEfoUcMPssrSc8
Qhged7JcZxvYZZE8V/VmV6TJpsqzdj94ZXEtyC2V5J6Rs98ui9tHRh5i8sd8QrTZbUYONZKKXBYo
DEKPbErqS5a/rAcPccYCCj5stukyS17qardN7j4l5W7zlPn7oODBZr/ZZG29T5ZZgdHVtnn54mE2
VVkti7zMlx7WV2xi4TbFWJifPxK2L+evIs/f474eCSWMXpSEAhrDvk2WdZaa0AbJdbXybPh4+/aX
f/5yrtXMWpmWL0WWpAWE7lGQhoE5kgH2lLXpcSyLgEYqXNDwbAR+STebV3V2Ht+Vedsk//JhkYMU
WfnSrpN0Il5UEKuYL9jZGPo0AYXIjWSsfRMdejmFlkEo43ARddhNlja7OoOMb5M6ey7KJtk1mXGq
CEM1gWqzDeRQ2sKzCW0tBztHuDU4NNmkX10K6CDmp2F56WAB5pxBnUo43AanOoA9C1y42mx3GIxW
CjaRl0Z1FxTvLz988mErrMHLqihcrXEZZHBk8TFH4eYNoVrL9Gx+JFlnq50vCJIYdp9+0fJA+mks
valgRYiJOnH1rjHSN3eX7x/ub8jiKqtfsnpdPT9b8bE0FnXIZRv4UInrHMozcUv7wKatwT5w78gV
1shfNAcb11mxqvPlf8wyfLzMIN2A+7ttWumPsTyUDlF6lT8/12WSbp7yiQAZQsTh/NNfZZ/zZdY7
0nrPHhkx8HTZVpDnWT2flB+VgPnvX0izTMtmwNbpKnc+w/q0rivwXQW1zR4BNLRjZAPFfDnE3Ryd
eP5cLXcNabK0gORod0/Z1BrtfuvH6/vq77+nE7Av6efM5qiBBcp2sg5nszD9nHxIsv/u8s+wZNlC
rAQhj6dgTf6ySe8uyqy9M+pC07bGsCLfQOVcD+kIdeMkpstFcn4K9B9fET+J8RRF06DCU6RPQgY9
jB6CjpoViTU/UnVQjIZ6NAnr1+vqUfZ120Lpf2qqegsNqMqen/OlCfbNzvg8YvoYVdduBvtkVw60
il9H4cJBHEWvoFyMNdDZzyHR8hob/CF+W1fLrGkgvdo0LxqTW5c3l1cfD/PXFBkru7TTGFZGSADf
oUipC9B3CF3hnNjunRNNMAQSj2gahonrcqqsWuLyeDU/xjfLOt96NXab1jA4QNJs8222OsS/S2C8
GvUHqdghqMm/ZaMAIAE9Acq9mQLa5QlQ6YPEzFVb44thx956NOBCnYB5ys4DGUY9rGhgcSjM9uwx
8PolKV/EZyeAXll8vfAP0i9VtSoxZqpnGLbbxAxqYHQoxGuw2lgEsDj0Yev9qq5eMghXHNa6brys
SugvPg6qcZ1/PSyceGPwUTbHE4wC0wsaN8uoCZDN5CF/BcbjBAoMSXNTV+1INkA6XrZKPjo32ONT
4UlY9dR0sFBLH/YhecYeVg+abOyZkj8Be/EvMOD9eGRbs86f24usWWEylQMsDI9RzW4c73/G8XTk
jKHZu8VNgL1r/rvyUfbSYIYDvFDA/RQqzpJ8IX8h9OK335t/s38v3lXw9+ynBSwhFH88g6efOOSO
jh//IF/WGYwCj3+xqJ/YuyWCL/go/r5MOipgoGMaVve5gO7kks3GLWHsSXs42u3fQ7VVm46vpzxi
A6pdwzmvq2KFRQC+Nl1Ruvsr+71Z3EEG/lZU4JA/wHkrOyHaAQLSozBB/dJQiIlgmT+PsUBw1344
iRd74XlkC3p2Uc6sst3WjHxZAvlT7w9ulJRyTh0w21ZQSMwBbjDZGrinf1pn5Bmm3OoLXtRgIRx9
8iUm4WdIIdhHQ77gwcCwhreVbPXzbD59zZsTGELgrj9/31/y5mS5hqsQDkMVmQ+Xv/ksXUK3WuGa
yLlYw/h20aS7It81FzbgLq7v3p2vclOq0jrPmgt0BUhlwQo19Kw9wavgisxHfOLMh94cBZQ8w0yH
7gjPQ3kOXX02u5zYK7EtZXa3+pmgtmeoOhmEAKGCKStOGYjDXPRzpH6O+L+IM5rgO4/ubJ/SJsOH
7OgWNnql03vRDHAJnE6SNsnX/bfZ/Osbsn9Dvs1n8/OvP9ELBo/24/wbfho6POyRAA9fzy1zbz+/
nRuMWwZG2Q20IwiQtMybKinSp6w4Jv+aUDpFZWyKyvmkhkksncQyPnukUJSYknBDwy88tF94RBcS
v4RUwh0Uv0juvhjK7JEhXmiLj2hs8VRzpJwjLu4ENH5BEo9Q9LIwi3YiLNbuC+du0TByoizqRJlC
0QdqFoNbCn7G9pNJSEZjRhipBbWScJWhzInCnZuDLFrMpZOJhZOJtKWEsDo13ygsAAJ2E9rKcuMm
fSDD1cKtEfJeJNTdypQqKx2hDLMyMnSy2slSpwxC0xiPJHMPexCewVH3qRxa8A6Nbu2+aqNj9iCx
JQm3kltZyM5aGjo3MceisKKRU56FijtfRd2SzlM67rwMQQEemT3EaFm3nLOUxwvPDRYv2OBZYXxz
jycq1YIbkfDQr04X7U03L1uuUci8HUEz3WfsYpcyqywMXewwCYTZNbNbQixlfKHO7MJdfLmIixfO
PoHxdo3nrpUJSypifHeDWpSLcfCodJ7p1UiQgvOm0kQOdrzQipkT649cW9MipxJOBIbEazxxbdOB
wqlaG7lTrsTCRXm3msmJe+blhGAH0RU6Qu9JfD6uS0cVydzok6/HpP0x6ZtP+jXB4gItzpRUnwOX
tnqD14a82Rb4FhGnSR+A40ryXKQvPnF4OWJYjc+rlsvdNi2XI5tQKxb2p6ow5U0IHbqzUHEE/tC2
2ECFULYUhHjmv0JVJCsSEEoebXXTEpIO5cxwjaFO7blA7bAFSx9LmuLGIsVsQQi00Cw2knjcWgu3
aGTqqid6WZjqRmVsi59WEBwmkKVUXVpolPaEHkxVk0JaGRWqLn553KWh4kdCtwxfZjAIbiUURbiM
tKkQ5Fc4PWLmxg8AvbWVL45temisE0Y/7asvj+mxUZgA2grRgCpoCiYVIqG7aqbwGMZCEPyRzTu8
W/eZyLqYjriAJDkQgkInqGtSUruFQs1Ut5A8llE41kuTxIGOqfUdo11Vh5vIsXFQ4aQKqTVOC2nX
EXFX9KAmHq6DpU1IYZtaJJjdGY1k1O3HFhRP6H52Sy8BrHmEzhDgfBwfTRAcHc0tvYIFVAhQwUON
ZU1Ep6DXAGJxjIZIgaej2DQUa6viyqYJ19xmCRXQroUrfqy3+QZErkH7jc0ttJljL9BxZE5hwpC3
AGUCQBwyD+OdxtNQLNgxcG2FjKLYeBjOSUfWkjg+toSB92LGMJSYwkxUnOFpi2NL2BUmGfotCg2U
yhNQ7AKxdi0+EBpu9NpY4ioypX4dcJZwsERpiukJdQLQXKPf+YRPOFoSC2BLcC9ARaymodhZNONu
3pGKUttZacSsd7DJiENTInSKCNGUiGLr1AIMonBGR6ZEV7hVqrAyGCMERuIUFHoVpDZkpy2LUsbu
pCij3B4QdLIjt4hLFOMSXCpiNIlat0MUHBkjrswSyFdhbAYFqaex0ARpwJi2M4DibvjsSw8kmz5I
asg1do2vC3iIIc+0ND1ensggdoMrcKGwzlBAMRafSkz2Fg03SRBThm6M5Qms34n9zuVRvNdsIyDc
OE0vtRcnaJRp8Ro/3/SNdeDbK/DsmlzbEdgO+GR+V7ZZXZrX4HDr/pQ+FVlD/lEVgHMPUcACGcQk
LVdEBrDdIJrPbsmtmbxC9/dH9dyTezOzUGfVj+p5IA9muJJG24/bc1ngL7bYJnFCEzT6YU2P5BGL
DDODZcR+WI+Lm5cMjtP9fDoe5hL6Kpe9yuUjrmH0V2X6Cm8kN8KZ/+tgZjto2TCWYUPFNKQwXGEZ
/7+OLnp65OixTw9VIEd45vDhAd7RQx1wRxcjugqooyuCv99HvR45osNBEZ4IJYxNna7okBfGQTyS
o26dOFAjGdrb1eG5o1tN4z0KggOlp0yPGbGxQB5YR4+ZYe9mJ8mdStn7jY4YniPijmGVWesd05pu
pl5kRP22rK9vh2PAu3kvwo1Iv2OuOy/Zox709ebZmLEMt6mIdZuCoQWmLTM7udUElv2BceUxImQg
9pDj4a8PFfX46xEe5SfIQAJN111sRoEZFPaObuYld57SmgPQaUYn8dZjcF/CZwhr6c2YA9GEeE6s
iDUJCgoOdntHN4OT00OtHruBKYaTuDol4TOss0HJiKMCjviIWF2GyBScpjYmGbqZoAxaBGYItXs+
ZNiVncSVx5C+xNWhBCoZcaCyIl4Qq6s7uMiZZOhmkuqzWnXOmGY4iatTEkcMVDLi2IOD0cbqsib1
XrJ0HKg6PeHgjEOGWaCTuPIYkS/hM4z7UMmI4w5O4P9ewvHpIKs6xs1RugH2kOPh33p4McK/Hacb
yE+Q/Wb4VJWrk71wksl85rifjVgwS7Vpucx82tDWsD5JtAlub+Y6sJ91bY7C/YwPJOFIaiAxR9KO
BBVSOV0eKbIoJgYS7/oPXgEHMrXISFqSKd92WcWUR6OOpj1a3JVXHKM9OrfYjtYX95j1TezAlr51
HCjsqprZYIw/j9rS6Op3rC3C1ebh8bp/7IorLEWZlR/Kp1YW4SqgfWQ2qUEg1C6l++LWIVx9so/c
phwKcCfQl54O4aqHfTQ5ZLcU9XXMFYYO4XLbPprYNwJCuz30adshXOaZxyHlrEv6dBoe3/aPfkqs
J8P+5lXu7avcyxF3nDNjXpc0yc3tNP32FH5Mt1PkDaBt4EEyuGkkxqufVPgrkzCvc6nQAe3i6QGj
UuIrD3ALzAsh/IljU2WokoHsAs3kLmKoBarIYiQ8d9EHOckSEYkOJxHHlMUxxNkTAl00kaLHxYgT
ocVFHe4G98ASGfW2CbRNmp9U4N4d8O5MYV1fn44NzvxCQ1UY6Nn/AKTzW/2uLAAA
;
  
  
   gzip+base64
   6  '1/_aiidasubmit.sh'  c7a10f6f09dcee667d34873d8ba26a8e
   8c8667dd0cdca6399cc70578cf894a8e1e24dd5c
   ?
   script
  
;H4sICMYnf1QC/3RtcGptQjFLZQBdUctSAyEQvPMVmBz2xLKbeEnKWKVevOs9xcLEYIBBHpb+vbMb
Hxupgqrp7mmGZnklBxvkoPKRseXT/d3zwyMXIqBI8Fahwgx8xUEE5WG3UNYaJdabfjGjX6CImiEJ
CO8zGGuJtez2WR/BVEd8LobAtnyUmQxSwvRPRdg/VUADedfPkaLyKYtIHSN5wRVLw3bddt1tu44x
5nG05g6V4TYUcD5aed327ZoxPq1vBT2DyyN6kB7S6TPLM36wDvKlcvLSaERBdFmuNqsNYw35phoa
3ogQ6expX9jlpOVfUyHtSdILnMg62Viy1Paw9+hA0x2jzRismBRRJcp4wnx1xUYHwqiiBoeacjin
3fAb3kyf1Foa4/anwJFa/ZaUb8O+AI0dLIUCAgAA
;
  
  
   gzip+base64
   7  1/aiida.in  cea462a356b150d9c6f5468fbab725c1
   290b23a67fb98d4f1a08006fab29ec89719e2a08
   ?
   input
  
;H4sICMYnf1QC/3RtcFRLaFJScQCdWltz2ziyftevwJvkmpgmAAIgZi+nfEnK3p3YriSztbUzsyxa
oi2epUgtSSVRHvLbtxsASVCi/JA8WGL3141Go2+gskrbNKGh+TcrqmqbzJLt7qlI0l27ruqkTDfZ
bP64TkvyCf6s35CPwXw2f5/WddW+IX/Dhw9Zme5Weeke36d5U5VltvucvSH/AIpV2GTLNq/KpM3b
Ipv9afbb7Xf+/X5xffudfT/7Lr7f4/MfwWXxCISH7/H32zckJVWZna/yTVY2IJsWJC12m7ystuuq
2a7TFhUl/1/tauAledPsMnL8Tw8Q3E7yvCuKA8j8ctmm5LreN21aFNVLnW7X+TKF3VqryfV8ULJN
X0BJXjftWAkNFT9AFekhCFGRj9pmdbKq8iNUQAF58TGkYcxUaI4oFpwNop8r8MXEfoUcMPssrSc8
Qhged7JcZxvYZZE8V/VmV6TJpsqzdj94ZXEtyC2V5J6Rs98ui9tHRh5i8sd8QrTZbUYONZKKXBYo
DEKPbErqS5a/rAcPccYCCj5stukyS17qardN7j4l5W7zlPn7oODBZr/ZZG29T5ZZgdHVtnn54mE2
VVkti7zMlx7WV2xi4TbFWJifPxK2L+evIs/f474eCSWMXpSEAhrDvk2WdZaa0AbJdbXybPh4+/aX
f/5yrtXMWpmWL0WWpAWE7lGQhoE5kgH2lLXpcSyLgEYqXNDwbAR+STebV3V2Ht+Vedsk//JhkYMU
WfnSrpN0Il5UEKuYL9jZGPo0AYXIjWSsfRMdejmFlkEo43ARddhNlja7OoOMb5M6ey7KJtk1mXGq
CEM1gWqzDeRQ2sKzCW0tBztHuDU4NNmkX10K6CDmp2F56WAB5pxBnUo43AanOoA9C1y42mx3GIxW
CjaRl0Z1FxTvLz988mErrMHLqihcrXEZZHBk8TFH4eYNoVrL9Gx+JFlnq50vCJIYdp9+0fJA+mks
valgRYiJOnH1rjHSN3eX7x/ub8jiKqtfsnpdPT9b8bE0FnXIZRv4UInrHMozcUv7wKatwT5w78gV
1shfNAcb11mxqvPlf8wyfLzMIN2A+7ttWumPsTyUDlF6lT8/12WSbp7yiQAZQsTh/NNfZZ/zZdY7
0nrPHhkx8HTZVpDnWT2flB+VgPnvX0izTMtmwNbpKnc+w/q0rivwXQW1zR4BNLRjZAPFfDnE3Ryd
eP5cLXcNabK0gORod0/Z1BrtfuvH6/vq77+nE7Av6efM5qiBBcp2sg5nszD9nHxIsv/u8s+wZNlC
rAQhj6dgTf6ySe8uyqy9M+pC07bGsCLfQOVcD+kIdeMkpstFcn4K9B9fET+J8RRF06DCU6RPQgY9
jB6CjpoViTU/UnVQjIZ6NAnr1+vqUfZ120Lpf2qqegsNqMqen/OlCfbNzvg8YvoYVdduBvtkVw60
il9H4cJBHEWvoFyMNdDZzyHR8hob/CF+W1fLrGkgvdo0LxqTW5c3l1cfD/PXFBkru7TTGFZGSADf
oUipC9B3CF3hnNjunRNNMAQSj2gahonrcqqsWuLyeDU/xjfLOt96NXab1jA4QNJs8222OsS/S2C8
GvUHqdghqMm/ZaMAIAE9Acq9mQLa5QlQ6YPEzFVb44thx956NOBCnYB5ys4DGUY9rGhgcSjM9uwx
8PolKV/EZyeAXll8vfAP0i9VtSoxZqpnGLbbxAxqYHQoxGuw2lgEsDj0Yev9qq5eMghXHNa6brys
SugvPg6qcZ1/PSyceGPwUTbHE4wC0wsaN8uoCZDN5CF/BcbjBAoMSXNTV+1INkA6XrZKPjo32ONT
4UlY9dR0sFBLH/YhecYeVg+abOyZkj8Be/EvMOD9eGRbs86f24usWWEylQMsDI9RzW4c73/G8XTk
jKHZu8VNgL1r/rvyUfbSYIYDvFDA/RQqzpJ8IX8h9OK335t/s38v3lXw9+ynBSwhFH88g6efOOSO
jh//IF/WGYwCj3+xqJ/YuyWCL/go/r5MOipgoGMaVve5gO7kks3GLWHsSXs42u3fQ7VVm46vpzxi
A6pdwzmvq2KFRQC+Nl1Ruvsr+71Z3EEG/lZU4JA/wHkrOyHaAQLSozBB/dJQiIlgmT+PsUBw1344
iRd74XlkC3p2Uc6sst3WjHxZAvlT7w9ulJRyTh0w21ZQSMwBbjDZGrinf1pn5Bmm3OoLXtRgIRx9
8iUm4WdIIdhHQ77gwcCwhreVbPXzbD59zZsTGELgrj9/31/y5mS5hqsQDkMVmQ+Xv/ksXUK3WuGa
yLlYw/h20aS7It81FzbgLq7v3p2vclOq0jrPmgt0BUhlwQo19Kw9wavgisxHfOLMh94cBZQ8w0yH
7gjPQ3kOXX02u5zYK7EtZXa3+pmgtmeoOhmEAKGCKStOGYjDXPRzpH6O+L+IM5rgO4/ubJ/SJsOH
7OgWNnql03vRDHAJnE6SNsnX/bfZ/Osbsn9Dvs1n8/OvP9ELBo/24/wbfho6POyRAA9fzy1zbz+/
nRuMWwZG2Q20IwiQtMybKinSp6w4Jv+aUDpFZWyKyvmkhkksncQyPnukUJSYknBDwy88tF94RBcS
v4RUwh0Uv0juvhjK7JEhXmiLj2hs8VRzpJwjLu4ENH5BEo9Q9LIwi3YiLNbuC+du0TByoizqRJlC
0QdqFoNbCn7G9pNJSEZjRhipBbWScJWhzInCnZuDLFrMpZOJhZOJtKWEsDo13ygsAAJ2E9rKcuMm
fSDD1cKtEfJeJNTdypQqKx2hDLMyMnSy2slSpwxC0xiPJHMPexCewVH3qRxa8A6Nbu2+aqNj9iCx
JQm3kltZyM5aGjo3MceisKKRU56FijtfRd2SzlM67rwMQQEemT3EaFm3nLOUxwvPDRYv2OBZYXxz
jycq1YIbkfDQr04X7U03L1uuUci8HUEz3WfsYpcyqywMXewwCYTZNbNbQixlfKHO7MJdfLmIixfO
PoHxdo3nrpUJSypifHeDWpSLcfCodJ7p1UiQgvOm0kQOdrzQipkT649cW9MipxJOBIbEazxxbdOB
wqlaG7lTrsTCRXm3msmJe+blhGAH0RU6Qu9JfD6uS0cVydzok6/HpP0x6ZtP+jXB4gItzpRUnwOX
tnqD14a82Rb4FhGnSR+A40ryXKQvPnF4OWJYjc+rlsvdNi2XI5tQKxb2p6ow5U0IHbqzUHEE/tC2
2ECFULYUhHjmv0JVJCsSEEoebXXTEpIO5cxwjaFO7blA7bAFSx9LmuLGIsVsQQi00Cw2knjcWgu3
aGTqqid6WZjqRmVsi59WEBwmkKVUXVpolPaEHkxVk0JaGRWqLn553KWh4kdCtwxfZjAIbiUURbiM
tKkQ5Fc4PWLmxg8AvbWVL45temisE0Y/7asvj+mxUZgA2grRgCpoCiYVIqG7aqbwGMZCEPyRzTu8
W/eZyLqYjriAJDkQgkInqGtSUruFQs1Ut5A8llE41kuTxIGOqfUdo11Vh5vIsXFQ4aQKqTVOC2nX
EXFX9KAmHq6DpU1IYZtaJJjdGY1k1O3HFhRP6H52Sy8BrHmEzhDgfBwfTRAcHc0tvYIFVAhQwUON
ZU1Ep6DXAGJxjIZIgaej2DQUa6viyqYJ19xmCRXQroUrfqy3+QZErkH7jc0ttJljL9BxZE5hwpC3
AGUCQBwyD+OdxtNQLNgxcG2FjKLYeBjOSUfWkjg+toSB92LGMJSYwkxUnOFpi2NL2BUmGfotCg2U
yhNQ7AKxdi0+EBpu9NpY4ioypX4dcJZwsERpiukJdQLQXKPf+YRPOFoSC2BLcC9ARaymodhZNONu
3pGKUttZacSsd7DJiENTInSKCNGUiGLr1AIMonBGR6ZEV7hVqrAyGCMERuIUFHoVpDZkpy2LUsbu
pCij3B4QdLIjt4hLFOMSXCpiNIlat0MUHBkjrswSyFdhbAYFqaex0ARpwJi2M4DibvjsSw8kmz5I
asg1do2vC3iIIc+0ND1ensggdoMrcKGwzlBAMRafSkz2Fg03SRBThm6M5Qms34n9zuVRvNdsIyDc
OE0vtRcnaJRp8Ro/3/SNdeDbK/DsmlzbEdgO+GR+V7ZZXZrX4HDr/pQ+FVlD/lEVgHMPUcACGcQk
LVdEBrDdIJrPbsmtmbxC9/dH9dyTezOzUGfVj+p5IA9muJJG24/bc1ngL7bYJnFCEzT6YU2P5BGL
DDODZcR+WI+Lm5cMjtP9fDoe5hL6Kpe9yuUjrmH0V2X6Cm8kN8KZ/+tgZjto2TCWYUPFNKQwXGEZ
/7+OLnp65OixTw9VIEd45vDhAd7RQx1wRxcjugqooyuCv99HvR45osNBEZ4IJYxNna7okBfGQTyS
o26dOFAjGdrb1eG5o1tN4z0KggOlp0yPGbGxQB5YR4+ZYe9mJ8mdStn7jY4YniPijmGVWesd05pu
pl5kRP22rK9vh2PAu3kvwo1Iv2OuOy/Zox709ebZmLEMt6mIdZuCoQWmLTM7udUElv2BceUxImQg
9pDj4a8PFfX46xEe5SfIQAJN111sRoEZFPaObuYld57SmgPQaUYn8dZjcF/CZwhr6c2YA9GEeE6s
iDUJCgoOdntHN4OT00OtHruBKYaTuDol4TOss0HJiKMCjviIWF2GyBScpjYmGbqZoAxaBGYItXs+
ZNiVncSVx5C+xNWhBCoZcaCyIl4Qq6s7uMiZZOhmkuqzWnXOmGY4iatTEkcMVDLi2IOD0cbqsib1
XrJ0HKg6PeHgjEOGWaCTuPIYkS/hM4z7UMmI4w5O4P9ewvHpIKs6xs1RugH2kOPh33p4McK/Hacb
yE+Q/Wb4VJWrk71wksl85rifjVgwS7Vpucx82tDWsD5JtAlub+Y6sJ91bY7C/YwPJOFIaiAxR9KO
BBVSOV0eKbIoJgYS7/oPXgEHMrXISFqSKd92WcWUR6OOpj1a3JVXHKM9OrfYjtYX95j1TezAlr51
HCjsqprZYIw/j9rS6Op3rC3C1ebh8bp/7IorLEWZlR/Kp1YW4SqgfWQ2qUEg1C6l++LWIVx9so/c
phwKcCfQl54O4aqHfTQ5ZLcU9XXMFYYO4XLbPprYNwJCuz30adshXOaZxyHlrEv6dBoe3/aPfkqs
J8P+5lXu7avcyxF3nDNjXpc0yc3tNP32FH5Mt1PkDaBt4EEyuGkkxqufVPgrkzCvc6nQAe3i6QGj
UuIrD3ALzAsh/IljU2WokoHsAs3kLmKoBarIYiQ8d9EHOckSEYkOJxHHlMUxxNkTAl00kaLHxYgT
ocVFHe4G98ASGfW2CbRNmp9U4N4d8O5MYV1fn44NzvxCQ1UY6Nn/AKTzW/2uLAAA
;
  
  
   gzip+base64
   8  '1/.aiida/job_tmpl.json'  b4f809324a06f1759fa8eb41ff811e66
   b35504454ff231e3a7fc7090b25c2ce2e7007079
   ?
   input
  
;H4sICMYnf1QC/3RtcGpJeFhEZgB1UtFu2zAM/BVDz1Nct31Y9ivrICgSM2uRSIGSuhZB/72UkmVz
gPnBBo7H4/HoswopE1dT3osBfA1MmACr+jZVbvBlUr8ooDmGCEUwbDEKlhkyoDcV3jpTJfItwhTJ
+ilghZhymJ93y+7pBV9wGs+V0wpM80oJ5gR8ei/zBR8D7qhDzpHXlSiW+XH/uFcyvFQPzAZtgj7b
huDtThA1zB7utjh/9Ba3gjfUam7VZFvX3mgGKoNYi6QUd1W2Ebbln69C+K5kC27YIY25f5b+2rgv
7Oa/FiUyPM0ZOOriOORaZheOJlEEJ4OGkpYE9KBkywX4AqYWa8gRtLfVHiK5U9EXv+rHbQFZkvg/
/qV28583xxmZtUMK1dhiVope0KONBW7CmxvfSiOUu5wF6XrJvpnfNkbXnZoCjtD33uXrw8P1DAyF
Grvee1bYkknWrQHHiEU4A8ohM7liJI8/9V7uN2OQMFGygH88deGNIf20X64/hayw9RpQfXwCYGsk
k+ACAAA=
;
  
  
   gzip+base64
   9  1/.aiida/calcinfo.json  c12ab7f04d013db7dbd489677868901f
   a374c3cfa06f2782ca51a0a376a9523b327636ff
   ?
   input
  
;H4sICMYnf1QC/3RtcDc3emRhTQBlkN1uwjAMhV8F5XpGhXbQ8ioIRWnibtacNMoPYpp4d9LSTVq5
9DlHx5/9IwKmQHhFyRSTOG3OQhEZtR1zEm+bZcAQpkFG/YkmMwaIyZTENt3Sq1HSs3EpTkA7JpR6
9N9/GyadR634VX7WSqcsFuk/yrN55S1k2homh9KroGyczwDIEcFjYChqxDkHYDMn8oxgVFJ9wfiK
UBb4/Mu7vCOS+2AciHENSG7FQG6qzpnMpNVYv+uqP4Bu2gM0u+Me2qGp4Ihd3e2Gtuurvbg/ADEO
d0h5AQAA
;
  
  
   gzip+base64
   10  1/aiida.err  d41d8cd98f00b204e9800998ecf8427e
   da39a3ee5e6b4b0d3255bfef95601890afd80709
   ?
   output
   ''
   .
   11  1/aiida.out  1251a57106f3b475d5d976343996124d
   723d198f48d56102cb775afe9fcdeec13c049bba
   ?
   output
  
;H4sICMYnf1QC/3RtcFF2dHpBZADtnEtz20iSx+/6FLhJHSEpUO+q3pNb3RHe3Whb0fM4zOwEAqYo
izsgqeWjx/LBn33qmVWgRBRyYg57sGfUAZD/HwhUZSaI5B946A99R1r/r1tvh+XiOCy79mLYbp+7
i+75+Gno+uPhabvrNv16eXF5/9Rvmj/a/zxdN3+4vby4/LXf7baH6+a/3Mpvy01/fFht4uqv/Wq/
3WyWx9+X182f7Sthg/vl4rDabrrD6jAsL/7j4q/vv7FvH67u3n+j3374Jr59cOt/u3033NsXPn7T
395fN32z3SxvHlbr5WZv2X5o+uG4Xm22z0/b/fNTf3Ab6v53e9zZ97rVfn9cNq//mSxxh9M9Hofh
RHL5bnHom7vdy/7QD8P2865/flotenu0Ya+bu8u8kef+s93Iarc/jDdCWsVOVEN/KnIqnlW/b+0B
vbHTQmbNy7LfvXFYDbXTd9EtlsPQDcvN58NT17+hUrdaaXZFfxhLP70hJe0tl9q0V6Q9US/eUsvb
Vur2iidtv/lsw6gf7MS8moL2FvY1yD4tD6/31ohbwlX5+UH8uV+vJ7e5Xvb7425p4+TQHZbr5+Wu
P9h1P0pG+oN/WD0+7jZdv/60ekP1SrfrH1a9D9j1drNdPO226/6wtfMQYsNG3mvl3k7YIk/m5ePK
Ru/jdnHcN/tlPywfmsPx0/LyDfLw8lwGwa/b//6f/g3ZP/rfl2FGvOxWhZBLuuXjsNl3hyc7tN26
/5IDxdzqV7JhtV4duqdCSNqzmtUmam7Oif5eboid1RQb4m+LhmJD5qwkb4cSGwPbh+7h+DzYlD0s
Ozu9u5eTTCGEsSjc7xbd4mm5tuKhe9zu1sfBDtd2tTy8NJdXd6J5T2TzgTY//PXd8P6eNh9187fL
CXR/XPvZ9qRq3g0OttA9LSi7/zYYumHf/dY99gsbSTZRbBW6DTM4IfvsCshtKzR/S/aP0eZuaSvN
tMy+Zj+USXrRuaJ96Ba7ZYzzpa34DxeX//nwY7NYPcKJwYYPa90Q8htCblrWtOZHyn7k8i9Nv3nY
rY57d5xnRiUX2IFoOz66+Ug4b+6ZjIPz4M5FIXFsTR1GpfDmteTTsF38fVSy/L9YBtKHHzerw777
y6haXXT7l7U9xt1Lt3/u7aY+77bH53BGeH/zq9vH+4ZchpNgk8XL/zuufu+et/uu33dfXr42l1+u
m5fr5utlOl/aurDu9rYk2HL/aTmUL7i8dpv6tB29/Lizk9F9ef3Sy+uXvpYv/cme5LadnUa/V+U7
28Xi+NxvFqMthADwVfFx6D/vy/fsZC38qxcfSfOxaW+J1Lxt7YJRNCy0Uiq7cNsyZa7UDw1pbpuH
i4/SywUh0quksfHh5YYGOZfySoNcha23flt265qErVPCjZcLSq4MyLWXWzHxKm1E+BibASLsjNF5
6/ekuXc7I0xrnErZY6BeTpmRTk7tKYol+XvakY4I3rxvbtgt1SrskxLKfdqNO+S0U9IivzVulAJF
A0VxFAsUwVE8UC2OEp6yWkLZbEh6iOAg5SGKg7SHGA4yHuIYiHVEijDBkbKjz6mJIX0OogGiKIgF
iKAgHqAWBQkPQUTMYqRnCIpRnqEoRnuGoRjjGT6X+Uh84gpbHOy8ahZrT61UEZ+4nqI4igWK4Cge
qBZHSU+R+RWY+Bx0EMVB2kMMBxkPcQzkcpCHuYoUsZVYyZS5ZzEaMIrEWMAIEuMBa5GY8BhM8kxK
eoogKeUpiqS0pxiSMp7iCCqdTv1MM85CzKtW6YgxLSPGTjAq4kzjMCbiTOMwLuJM4zAhwkxLO+Xz
KSnCTOMoJcJM4ygtwkzjKCPCTGOocF71Mx0xW7QNpaESnKeojPUXRTEZ6y+K4jLWXxQlPAWxMQ+S
MhRtFKRkKNooSMtQtFGQkaFoz4ZYmcqGEB1KffiW70pky3XANDnBIJVxGKQyDoNUxmEplVut6Xwq
pTKOSqmMo1Iq46iUyhiqSOWI+SMMpWCCglRGUZDKKApSGUWlVI6xMQ9KqYyCUiqjoJTKKCil8myI
u1ROE6zbSBEVr9MJFyZep6viwttRMMEoCiYYRcEEo6g0wcTEqJgDpQlGQWmCUVCaYBSUJhgBsVyr
I2XHkbYqJv55DGo1DoNajcOgVuOwVKtjZMykUq3GUalW46hUq3FUqtXzKVGelYUxImC8Td/WqKAB
Y6LouYnyrIzDYKZxGMw0DkszbesZgkozjaPSTOOoNNM4Ks00hirOyhGz6SZM/NZ2noKijaKgaKMo
KNooKhXtGBvzoFS0UVAq2igoFW0UlIr2bEiWHSyeTuG17rksO1goCjpYKAo6WCgqdbBm/yggiw4W
CkodLBSUOlgIqOhgRcpe6rWpWk9g0MHCYdDBwmHQwcJhqYMVJ3kmlTpYOCp1sHBU6mDhqNTBmk+p
UV/ZMDbrRyo16itjqNxXxlC5r4yhoK8897c3VfaVMRD0lTEQ9JXnQ2VfOVD2aojoeL07geW+MgrL
fWUUlvvKKAz6ymGSZ1LQV0ZR0FdGUdBXRlHQV55N6TIrGTVmzm/BnoKsRFGQlSgKshJFpayc+xO3
h1JWoqCUlSgoZSUCKrIyUi5hOI+F9zwGWYnDICtxGGQlDktZGSd5JpWyEkelrMRRKStxVMrK2dR9
+g323n+D5a0hMywX9+k32Hv/DRZDsUARHMUD1eIo6Sky20lyn36DvXffYDGQ9hDDQcZDHAOFrPRz
FSliy60wOl6FnsVowCgSYwEjSIwHrEViwmMwyTMp6SmCpJSnKJLSnmJIyniKIygau71+pk3LBPen
WCEk8y1Exm0yO8qcUlTGrERRTMasRFFcxqxEUcJT7su75HIuJGVIZRSkZEhlFKRlSGUUZGRIZQQU
ur1+giNlx5FzpkLr8DxGRUxlHMZETGUcxkVMZRwmREjlGBkzKSlCKuMoJUIq4ygtQirjKCNCKs+m
3g0ktnvfDd6+JqhSHhSGphrg2k0O5PKKj0EaQYoFWQQJFuQRbLGgCKD9/s8VZfM5GTiC5VTgKJbT
gWNYzgSO47jQAA5zH0GbgrxV8UR/nqORo0iORY4gOR65FsmJwEG8zMRkwAgSUwGjSEwHjCExEzA+
G/Pmdrj9arXvnrfDy3rp7/V5We6TvXyk8v7taDN//cZ2t/p8/t1kaT/znv2w1cP59768fH3rzcOu
3+yHM2R888vEey8T7735gevjcDj3erdztzJ4QztpXJURdqi/XL9cf23ccuv/xxviPexyWqEa+/9J
hXZ3eUwpnDl9ej+yH502YSHp3PINt7IbkpU0KWmhdMs37ETJkpIVSrd8Q0+UPCl5oXTLVjRWiqQU
hdIttydCmYSyEIblsVAloSqEbvl0J3US6kLolk+P2yShKYRueTyU0SNOm7DAmpsv1zcv1zd23O3q
TdhT0NKkpWOtW7UjP9KypGVjrVu1Yz/S8qTlY61btfs60oqkFWOtW23HUpmkcix1qydbVUmqxlK3
erKzOkn1WBpWR1KTpGYsdat5aLOlmzRhIce+CLFfCGkS0kLoln3oF0KWhKwQumUf+YWQJyEvhG7Z
B34hlEkoC2FYHulU0qlC55ZPPlgnnS50bvnkSEzSmULnlkdDE5tvpAkLo1DmIZRj3GeDNWnCwiiW
eYjlUsySmI3FbtUHcynmSczHYrfqo7kUiyQWY7FbbU+0MmnlWOtWT7erklaNtW71dId10uqxNqyO
tSZpzVjrVsshBkN0rZ5nD3Stnmfbc62eZ6dzrZ5nc3Olnmc/c6WeZwtzpZ5n13KlnmejcqWeZ29y
vZ5nR3K9nmcfcr2eZ/dxvZ5nz3G1nmencbWeZ39xtZ5nV3G1nmcvcb2eg4OY1WIfTMOsFvvgE2a1
2AdrMKvFPriBWSX2wQDMKrEPnl9WiX2w+bJK7IOzl1ViH8y8rB77YOFl9dgH4y6rxz7YdVk99sGk
y6qxD9ZcVo19MOSyauyDDZdVYx/Mt6wa+2C55U1YgNg/mQNw2TohLYSnEwDGWidkhfB09MFL64S8
EJ4OPdhnnVAUwpNxB8es08lCdzLoYJJ1OlXoTkYcfLFOpwvdyXCDFdbpTKF7NdbR/cqbsFCG/Gmp
Ac+rE9Ox+FW1AaerE7Ox+FXBAX+rE/Ox+FXNAVerE4ux+LTsgJfVaeVYe1p5wMHqtGqsPS0+4Ft1
Wj3WntYfcKs6rRlrT0sQeFRFre6DLVXU6j44UUWt7oP5VNTqPvhNRaXug8VUVOo+uEpFpe6DkVRU
6j54R0Wl7oNdVNTrPphERb3ugzVU1Os+GEJFve6DDVRU6z6YP0W17oPlU1TrPhg9RbXug71TVOs+
mDpl5RoWfJyycg0L1k1ZuYYFt6asXMOCQVNOX8OCJ1NOX8OCDVNOX8OC81JOX8OC2VLOuIYFi6Wc
cQ0Lxko54xoW7JRyxjUsmChl/RoWrJOyfg0LhklZv4YFm6SsX8OCOVLWr2HBEqkqMQ0uSFWJaTA+
qkpMg9dRVWIa7I1qOqbB0aimYxpMjGo6psG3qKZjGqyKakZMg0FRzYhpsCWqGTENZkQ1I6bBgqjq
MQ3GQ1WPabAbqnpMg8lQ1WMarIWqHtNgKNSVmAYPoa7ENNgGdSWmwSmoKzEN5kA9HdPgB9TTMQ0W
QD0d0+D609MxDUY/PSOmwd6nZ8Q0mPr0jJgGK5+eEdNg4NP1mAbbnq7HNJj1dD2mwaKn6zENxjxd
jelsx6v0z7MDr9I/z6a7Sv88++wq/fNsrZvun2c33XT/PBvopvvn2TM33T/PNrkZ/fNsjpvRP8+W
uBn982yEm9E/z/a3ev88m97q/fNsdav3z7PBrd4/z7a2ev88m9nodB8l+9fodB8lW9bodB8lu9To
dB8lG9PoZB8le9HoZB8l28/oZB8lO87oZB8lm8zoZB8l+8povY+S3WS03kfJHjJa76Nk5xit91Gy
X4xW+yjZJUarfZTsDaPVPkp2hNFqHyX7wGi1j1K6v0ilk1Iavkill1J6vEilm1Laukiln1I6uch0
R6U0b5Hpnkrp1yLTXZXSokWm+yqlK4tMd1ZKIxap9lZK+xWpdldK0xWp9ldKqxWpdlhKgxWp9VhK
WxWpdVlKMxWp9VlKCxWpdVpK4xSp9Voe3nxqNfn+1OrvT63+/tTq70+t/v7U6u9Prf63P7UaxvX7
06r/vzyt+o40d85AzlR42gYz8YGORJDwMCylbEm0Xxt+bh4u7qhXaxkfuMO51vEWc8O9WutCzYLa
tOEme2EIi2rlb4gkJN6u4dXcqw1lYU+kIiQ+tYn6PSGCXYmk/kCaD26TUoRNckFFVEseHxei3Tkk
PaqavPMP/OWGhZvieRtJVxU8IMuH6pKfvFyoNsitONyTTOwFwRvyuyCncTy43bEgN4q+If85PFra
PVYh7AzT8QEaOmzd0FL+S5BTEVSspWGByDhJIzkNh6ppHBJOVRhJqvzY2nojSnk4VKPiEfI2yYl8
Q87C1pUhcZ7cg4a9nJkwq6zcGRa3rkXYGdnGZ3Dbg1Gv5Tzuu2jj1nmMgtZt3Mk1L+Vh69qQ9GBv
rWL4+nkey+9E7J/d+ftz4/BIGSeNUBIiwZgclh9oZD64+2TSsSoWMyA+W8yFm8l33L+nd5FyD4y2
8RWOQdnvF3Hv4kMjR1FBfy4gyoSKD1eJT1mhVL8RqPSXAiImPmVGExrHQcs3IPGuhJiM+anjoJM0
8USX0E8l1EoaH3WqSXp6sXkFfb/p4l+86cLV5embHVwtptMKW3/ZtMLWXD6pcHW2ctOFq6z2b1pj
89T+TWtsDbV/0xpbOO3ftMZWS/s3faOI3Wda2WdXF2lln10xZJXtuArIKttxZY9XtuNqHZ/eTi5w
YvIHglzU6KSuqGP0rqKE4kV/riihYtFfppW5TIl3FSXUJvHTpPKfEvvR061rAAA=
;
  
  
   gzip+base64
   12  '2/_aiidasubmit.sh'  8a86fe1511ed096473f56323a69622cf
   e3c5904b3154ad6a56025f3df2fd992bdccae5af
   ?
   script
  
;H4sICMYnf1QC/3RtcFZINUpzRwBdUU1PAjEQvfdXVDj01O0CJgYiJurFu97JsjvASLetnSnRf++A
iguHNnkf82Y6Hd+4NQa3bmin1Pj16fHt+UVbG6LN8FGgwIB8j2sbmh6Wowaxa+xsfjcayFtgWwiy
hXAY0LFwKrxcUbuDrnjRiTshK/7kgQ1yjvnKJdyVK8QOaDkZMtzQnmySiqN4oTHKsHW9mNWLulZK
9fEYrX1sOo2BwfcJ3W01qWZnTR6g3S724HrI+y9yP/wGPdBFfRs7yzF6ctP5dK6UkaxcgtHGhiT3
RM5FEOXW/RexePdOpvaW2oyJybW4WVHyyKuUsUfGAxzTfhdoO8wCTwaj77U5/UGF0vHhD4jT6OkZ
yvqM+gZfeRve4QEAAA==
;
  
  
   gzip+base64
   13  2/aiida.in  1251a57106f3b475d5d976343996124d
   723d198f48d56102cb775afe9fcdeec13c049bba
   ?
   input
  
;H4sICMYnf1QC/3RtcHBRbEppVwDtnEtz20iSx+/6FLhJHSEpUO+q3pNb3RHe3Whb0fM4zOwEAqYo
izsgqeWjx/LBn33qmVWgRBRyYg57sGfUAZD/HwhUZSaI5B946A99R1r/r1tvh+XiOCy79mLYbp+7
i+75+Gno+uPhabvrNv16eXF5/9Rvmj/a/zxdN3+4vby4/LXf7baH6+a/3Mpvy01/fFht4uqv/Wq/
3WyWx9+X182f7Sthg/vl4rDabrrD6jAsL/7j4q/vv7FvH67u3n+j3374Jr59cOt/u3033NsXPn7T
395fN32z3SxvHlbr5WZv2X5o+uG4Xm22z0/b/fNTf3Ab6v53e9zZ97rVfn9cNq//mSxxh9M9Hofh
RHL5bnHom7vdy/7QD8P2865/flotenu0Ya+bu8u8kef+s93Iarc/jDdCWsVOVEN/KnIqnlW/b+0B
vbHTQmbNy7LfvXFYDbXTd9EtlsPQDcvN58NT17+hUrdaaXZFfxhLP70hJe0tl9q0V6Q9US/eUsvb
Vur2iidtv/lsw6gf7MS8moL2FvY1yD4tD6/31ohbwlX5+UH8uV+vJ7e5Xvb7425p4+TQHZbr5+Wu
P9h1P0pG+oN/WD0+7jZdv/60ekP1SrfrH1a9D9j1drNdPO226/6wtfMQYsNG3mvl3k7YIk/m5ePK
Ru/jdnHcN/tlPywfmsPx0/LyDfLw8lwGwa/b//6f/g3ZP/rfl2FGvOxWhZBLuuXjsNl3hyc7tN26
/5IDxdzqV7JhtV4duqdCSNqzmtUmam7Oif5eboid1RQb4m+LhmJD5qwkb4cSGwPbh+7h+DzYlD0s
Ozu9u5eTTCGEsSjc7xbd4mm5tuKhe9zu1sfBDtd2tTy8NJdXd6J5T2TzgTY//PXd8P6eNh9187fL
CXR/XPvZ9qRq3g0OttA9LSi7/zYYumHf/dY99gsbSTZRbBW6DTM4IfvsCshtKzR/S/aP0eZuaSvN
tMy+Zj+USXrRuaJ96Ba7ZYzzpa34DxeX//nwY7NYPcKJwYYPa90Q8htCblrWtOZHyn7k8i9Nv3nY
rY57d5xnRiUX2IFoOz66+Ug4b+6ZjIPz4M5FIXFsTR1GpfDmteTTsF38fVSy/L9YBtKHHzerw777
y6haXXT7l7U9xt1Lt3/u7aY+77bH53BGeH/zq9vH+4ZchpNgk8XL/zuufu+et/uu33dfXr42l1+u
m5fr5utlOl/aurDu9rYk2HL/aTmUL7i8dpv6tB29/Lizk9F9ef3Sy+uXvpYv/cme5LadnUa/V+U7
28Xi+NxvFqMthADwVfFx6D/vy/fsZC38qxcfSfOxaW+J1Lxt7YJRNCy0Uiq7cNsyZa7UDw1pbpuH
i4/SywUh0quksfHh5YYGOZfySoNcha23flt265qErVPCjZcLSq4MyLWXWzHxKm1E+BibASLsjNF5
6/ekuXc7I0xrnErZY6BeTpmRTk7tKYol+XvakY4I3rxvbtgt1SrskxLKfdqNO+S0U9IivzVulAJF
A0VxFAsUwVE8UC2OEp6yWkLZbEh6iOAg5SGKg7SHGA4yHuIYiHVEijDBkbKjz6mJIX0OogGiKIgF
iKAgHqAWBQkPQUTMYqRnCIpRnqEoRnuGoRjjGT6X+Uh84gpbHOy8ahZrT61UEZ+4nqI4igWK4Cge
qBZHSU+R+RWY+Bx0EMVB2kMMBxkPcQzkcpCHuYoUsZVYyZS5ZzEaMIrEWMAIEuMBa5GY8BhM8kxK
eoogKeUpiqS0pxiSMp7iCCqdTv1MM85CzKtW6YgxLSPGTjAq4kzjMCbiTOMwLuJM4zAhwkxLO+Xz
KSnCTOMoJcJM4ygtwkzjKCPCTGOocF71Mx0xW7QNpaESnKeojPUXRTEZ6y+K4jLWXxQlPAWxMQ+S
MhRtFKRkKNooSMtQtFGQkaFoz4ZYmcqGEB1KffiW70pky3XANDnBIJVxGKQyDoNUxmEplVut6Xwq
pTKOSqmMo1Iq46iUyhiqSOWI+SMMpWCCglRGUZDKKApSGUWlVI6xMQ9KqYyCUiqjoJTKKCil8myI
u1ROE6zbSBEVr9MJFyZep6viwttRMMEoCiYYRcEEo6g0wcTEqJgDpQlGQWmCUVCaYBSUJhgBsVyr
I2XHkbYqJv55DGo1DoNajcOgVuOwVKtjZMykUq3GUalW46hUq3FUqtXzKVGelYUxImC8Td/WqKAB
Y6LouYnyrIzDYKZxGMw0DkszbesZgkozjaPSTOOoNNM4Ks00hirOyhGz6SZM/NZ2noKijaKgaKMo
KNooKhXtGBvzoFS0UVAq2igoFW0UlIr2bEiWHSyeTuG17rksO1goCjpYKAo6WCgqdbBm/yggiw4W
CkodLBSUOlgIqOhgRcpe6rWpWk9g0MHCYdDBwmHQwcJhqYMVJ3kmlTpYOCp1sHBU6mDhqNTBmk+p
UV/ZMDbrRyo16itjqNxXxlC5r4yhoK8897c3VfaVMRD0lTEQ9JXnQ2VfOVD2aojoeL07geW+MgrL
fWUUlvvKKAz6ymGSZ1LQV0ZR0FdGUdBXRlHQV55N6TIrGTVmzm/BnoKsRFGQlSgKshJFpayc+xO3
h1JWoqCUlSgoZSUCKrIyUi5hOI+F9zwGWYnDICtxGGQlDktZGSd5JpWyEkelrMRRKStxVMrK2dR9
+g323n+D5a0hMywX9+k32Hv/DRZDsUARHMUD1eIo6Sky20lyn36DvXffYDGQ9hDDQcZDHAOFrPRz
FSliy60wOl6FnsVowCgSYwEjSIwHrEViwmMwyTMp6SmCpJSnKJLSnmJIyniKIygau71+pk3LBPen
WCEk8y1Exm0yO8qcUlTGrERRTMasRFFcxqxEUcJT7su75HIuJGVIZRSkZEhlFKRlSGUUZGRIZQQU
ur1+giNlx5FzpkLr8DxGRUxlHMZETGUcxkVMZRwmREjlGBkzKSlCKuMoJUIq4ygtQirjKCNCKs+m
3g0ktnvfDd6+JqhSHhSGphrg2k0O5PKKj0EaQYoFWQQJFuQRbLGgCKD9/s8VZfM5GTiC5VTgKJbT
gWNYzgSO47jQAA5zH0GbgrxV8UR/nqORo0iORY4gOR65FsmJwEG8zMRkwAgSUwGjSEwHjCExEzA+
G/Pmdrj9arXvnrfDy3rp7/V5We6TvXyk8v7taDN//cZ2t/p8/t1kaT/znv2w1cP59768fH3rzcOu
3+yHM2R888vEey8T7735gevjcDj3erdztzJ4QztpXJURdqi/XL9cf23ccuv/xxviPexyWqEa+/9J
hXZ3eUwpnDl9ej+yH502YSHp3PINt7IbkpU0KWmhdMs37ETJkpIVSrd8Q0+UPCl5oXTLVjRWiqQU
hdIttydCmYSyEIblsVAloSqEbvl0J3US6kLolk+P2yShKYRueTyU0SNOm7DAmpsv1zcv1zd23O3q
TdhT0NKkpWOtW7UjP9KypGVjrVu1Yz/S8qTlY61btfs60oqkFWOtW23HUpmkcix1qydbVUmqxlK3
erKzOkn1WBpWR1KTpGYsdat5aLOlmzRhIce+CLFfCGkS0kLoln3oF0KWhKwQumUf+YWQJyEvhG7Z
B34hlEkoC2FYHulU0qlC55ZPPlgnnS50bvnkSEzSmULnlkdDE5tvpAkLo1DmIZRj3GeDNWnCwiiW
eYjlUsySmI3FbtUHcynmSczHYrfqo7kUiyQWY7FbbU+0MmnlWOtWT7erklaNtW71dId10uqxNqyO
tSZpzVjrVsshBkN0rZ5nD3Stnmfbc62eZ6dzrZ5nc3Olnmc/c6WeZwtzpZ5n13KlnmejcqWeZ29y
vZ5nR3K9nmcfcr2eZ/dxvZ5nz3G1nmencbWeZ39xtZ5nV3G1nmcvcb2eg4OY1WIfTMOsFvvgE2a1
2AdrMKvFPriBWSX2wQDMKrEPnl9WiX2w+bJK7IOzl1ViH8y8rB77YOFl9dgH4y6rxz7YdVk99sGk
y6qxD9ZcVo19MOSyauyDDZdVYx/Mt6wa+2C55U1YgNg/mQNw2TohLYSnEwDGWidkhfB09MFL64S8
EJ4OPdhnnVAUwpNxB8es08lCdzLoYJJ1OlXoTkYcfLFOpwvdyXCDFdbpTKF7NdbR/cqbsFCG/Gmp
Ac+rE9Ox+FW1AaerE7Ox+FXBAX+rE/Ox+FXNAVerE4ux+LTsgJfVaeVYe1p5wMHqtGqsPS0+4Ft1
Wj3WntYfcKs6rRlrT0sQeFRFre6DLVXU6j44UUWt7oP5VNTqPvhNRaXug8VUVOo+uEpFpe6DkVRU
6j54R0Wl7oNdVNTrPphERb3ugzVU1Os+GEJFve6DDVRU6z6YP0W17oPlU1TrPhg9RbXug71TVOs+
mDpl5RoWfJyycg0L1k1ZuYYFt6asXMOCQVNOX8OCJ1NOX8OCDVNOX8OC81JOX8OC2VLOuIYFi6Wc
cQ0Lxko54xoW7JRyxjUsmChl/RoWrJOyfg0LhklZv4YFm6SsX8OCOVLWr2HBEqkqMQ0uSFWJaTA+
qkpMg9dRVWIa7I1qOqbB0aimYxpMjGo6psG3qKZjGqyKakZMg0FRzYhpsCWqGTENZkQ1I6bBgqjq
MQ3GQ1WPabAbqnpMg8lQ1WMarIWqHtNgKNSVmAYPoa7ENNgGdSWmwSmoKzEN5kA9HdPgB9TTMQ0W
QD0d0+D609MxDUY/PSOmwd6nZ8Q0mPr0jJgGK5+eEdNg4NP1mAbbnq7HNJj1dD2mwaKn6zENxjxd
jelsx6v0z7MDr9I/z6a7Sv88++wq/fNsrZvun2c33XT/PBvopvvn2TM33T/PNrkZ/fNsjpvRP8+W
uBn982yEm9E/z/a3ev88m97q/fNsdav3z7PBrd4/z7a2ev88m9nodB8l+9fodB8lW9bodB8lu9To
dB8lG9PoZB8le9HoZB8l28/oZB8lO87oZB8lm8zoZB8l+8povY+S3WS03kfJHjJa76Nk5xit91Gy
X4xW+yjZJUarfZTsDaPVPkp2hNFqHyX7wGi1j1K6v0ilk1Iavkill1J6vEilm1Laukiln1I6uch0
R6U0b5Hpnkrp1yLTXZXSokWm+yqlK4tMd1ZKIxap9lZK+xWpdldK0xWp9ldKqxWpdlhKgxWp9VhK
WxWpdVlKMxWp9VlKCxWpdVpK4xSp9Voe3nxqNfn+1OrvT63+/tTq70+t/v7U6u9Prf63P7UaxvX7
06r/vzyt+o40d85AzlR42gYz8YGORJDwMCylbEm0Xxt+bh4u7qhXaxkfuMO51vEWc8O9WutCzYLa
tOEme2EIi2rlb4gkJN6u4dXcqw1lYU+kIiQ+tYn6PSGCXYmk/kCaD26TUoRNckFFVEseHxei3Tkk
PaqavPMP/OWGhZvieRtJVxU8IMuH6pKfvFyoNsitONyTTOwFwRvyuyCncTy43bEgN4q+If85PFra
PVYh7AzT8QEaOmzd0FL+S5BTEVSspWGByDhJIzkNh6ppHBJOVRhJqvzY2nojSnk4VKPiEfI2yYl8
Q87C1pUhcZ7cg4a9nJkwq6zcGRa3rkXYGdnGZ3Dbg1Gv5Tzuu2jj1nmMgtZt3Mk1L+Vh69qQ9GBv
rWL4+nkey+9E7J/d+ftz4/BIGSeNUBIiwZgclh9oZD64+2TSsSoWMyA+W8yFm8l33L+nd5FyD4y2
8RWOQdnvF3Hv4kMjR1FBfy4gyoSKD1eJT1mhVL8RqPSXAiImPmVGExrHQcs3IPGuhJiM+anjoJM0
8USX0E8l1EoaH3WqSXp6sXkFfb/p4l+86cLV5embHVwtptMKW3/ZtMLWXD6pcHW2ctOFq6z2b1pj
89T+TWtsDbV/0xpbOO3ftMZWS/s3faOI3Wda2WdXF2lln10xZJXtuArIKttxZY9XtuNqHZ/eTi5w
YvIHglzU6KSuqGP0rqKE4kV/riihYtFfppW5TIl3FSXUJvHTpPKfEvvR061rAAA=
;
  
  
   gzip+base64
   14  '2/.aiida/job_tmpl.json'  8ada15af8cd8d37d1fedda55af1b4bca
   d40a321867e561a1e8c6f2649c08338476d89fbb
   ?
   input
  
;H4sICMYnf1QC/3RtcHdscV9YSgB1kdFu2zAMRX/F0HMdN02BNf2VdhAUiZm5SJRASVmKoP9eSs28
usBebOCSvPeQuioMKXLR+S1roDNypABU1PNQuMLdoH5HJH1ED1k0qt6LlhgSkNMFLq1Theiqh8FH
4wakAj4knB43283ulV7pVq0ZhmmOAaYAfHrL06ferZembmGjG0uMPk8P+4e9ksBcHDBrMgFankF0
ZiOK6oCHb+TX9zZiZ3A61pJq0cmUuQ3qrkoQj2IpxU2RDaTb8K+zNLwoIedKTRoptd+2fVbcme30
D1HORKcpAfsxW8ZU8mTxqHPyKLmMAQueoRuOnzSjww7eW9TPhVX2ifwfVKktqGl1++5UDxKjTdZz
9E7Uo/EZFuPVEy6lvv+3k4rS/IK56D/Ge+ujPekMNpJrs9un+/vbxRlyrGzb7FVRDToYOyP1iK30
dClh4mizluv8rbdyex4GuRuZg4cvTM14BTTu9j9u7y8rrFmR1PsHGgxgwr8CAAA=
;
  
  
   gzip+base64
   15  2/.aiida/calcinfo.json  43b2824605f778499263cd3fd0fab35d
   48d8568bc1a46b43bff0fd3a2c68b2330dc1d73e
   ?
   input
  
;H4sICMYnf1QC/3RtcDBiOFpraABtj10KwjAQhK9S8mxKWkJbvYpIiMmqC2la8iOKeHeTtohWH/eb
3dmZB3EQHMIVhEEfyK7YE4moZTnEQDbFMoBzefCjwYkKry6gowFHfdBptQy3P0I6m4RDUhz0QwCh
hvH+fpW5GZQ0v3i2FVb2kNB3ptl5pS0RVa8NWhCjdLL3Ux9K090YA9X40WLOtHT3aM8GTmhgHQLt
6g/a7BEj6sxqDhVn0FHJK6C8Vi09gtzSlmnGqqZlTafJ8wUIv536ZgEAAA==
;
  
  
   gzip+base64
   16  2/aiida.err  88f653e4d2ef22250ee8fb97d3bc975e
   306789372176a802e27e8f1ef7aafd4da36ad524
   ?
   output
  
;split/1000000_molecule_0.cif
split/1000000_molecule_1.cif

;
   
   .
   17  '2/split/1000000_molecule_1.cif'  b8e0558daccbe1945c0bac425e832e3d
   0b1aaa29181dc0c21c1cf20311e89d95c0e0aee6
   ?
   output
  
;H4sICMYnf1QC/3RtcGdpOTNGSwCFl0tv2zgQx+/+FLzZBRxBJPVi95Q6Bby7aBp0H4d2C4KWaVtb
SvLqkcY5+LPv8GFbjmXZgQKa/M1oODP8M1mKRnDsmw/PSyXTVkmOR6ost3zEt+1CcdE2m7Lihcjl
aPy0EQX6E35tpugPbzwafxJVVTZT9Jv+8kUWol1mhfv6SWR1WRSyfZZT9DfMWIe1TJusLHiTNUqO
fhl9m+/p/nEym+/J/t0+3D/q79+9e/UEE5/3yX4+RQKVhbxbZrksarAVCgnV5llRbjdlvd2IRjvi
/5ZtBWs8q+tWossPOyF6O3zVKvUGGd+njUCzalc3QqlyXYntJksF7NZGjWbjk5OtWIOTrKqbcyfY
j+kbSom3kKaCE/VcwoZ6gg6jE7OTourZFiJQvhFPpVJcyWLdbLjooWIviRM6Ie/O0UUPin0viBLm
T7D/hk776Mjzo8SfBAdWFGtoI6GgMBcl8L1jrBZbyOYyWhZ6OIi777fwWuT5oM9cirqtJPRJwxuZ
b2UlGvhussQis/lltlpVBRf5IuuhLrhKLDNhGjYvizLdVGUumhLqYHsDOu+SrKFg6amY41UG3bsq
07ZGtRRKLlHTLuS4x7LZbbtN8Kn8/R/Rg/0Uz9JWxGBebFvuwMmVKmrebCC1PBcvp0ZhXnKBqSzP
Gr7pgNi/ymSFY+6uQT+6juhVpuMo6IdUxxG7ipz8EAw9UC75st0qOLKN5FDeavfmpGBMqQPrKuXp
RuYAK74qq7xVkK4yk80OjSezEM1xhB4JevftXs2fCPqcoO/jAdO6zU21jWWM7pU2BqMn0rGC+KEZ
uKr5F74SKXQSHBRQIc9WcABbawHx/DAJ+rCfZ+484kdsGIM5eCmNyIhr0W54WknX5xIUfzka/7p8
j9JsdbwYoH2or1MY3GF851Pks/eEvg+ir0gUyypra73PK1k5noVjXl1SlvoOsgcGtFSdSeDdJbJQ
ZfrjTKrMxx3/w0vbImtq/vVMpUa83uWwt2rH660AV+uqbLf2JpjffdKxPSE8tpcfOsHyvzZ75tuy
5qLmL7tXNH6Zot0UvY4P9yToQc5rkAKQ+YVU3Ql9nrWrRXk2vaqgCPzlcmp3OfXanfoLLreSQ/lM
VN2VMk3brSjSMw+28EYNV0qs6+4aFCk1s6MZRjPkezGN4SaBAWU0MgMc4gQGnh/HIIkIowe0HM2I
oZPIrMFNESR2QDALDJ0kHZpamvnUQCHD1NFxqGmM/Qk90oGhGaE2kiiGZRNJQEwkOKST8EA/YvSo
XUahdRmEJHR0ZCMJaKLvEOA94Of4Hs01x2hgDXxnqVXBGEQRsF+Qzg3gHwwexr7FAWYWJ2HQg88s
Tlw+AgjM4swk9i3+YPA4AVc2GGrtfJZY74x08Y8WJ6GlqE/sAEeuSGc4sVtNiEtJQGKbSRKb3ILe
hF3cbpXFboeBf8Bx1INT6z1m2NWJMLsJQpmtKu0GQ533JLTBRNBQFg+T+BIPXOyh77wHrgt87Vzj
SdDFrfeEYes0tk51+5o6n+OzkGMehSE0GoZdufREkSsaJth2AmOntnwkzuYRbMhhrzF1JwDHjLp2
YxN27DYyc1ZzsIL+snuI4e8LF10SXXYFeegYERranUQMWyNCkp5GJR87Rti2DyQEE5eHJOoxCu+7
RjRy5zNxSceHwuOka/Sha+RHlo39xBUoitiFkVNJreTH/zGMDDm1vFwoq2x9ffWgzFfW4GXZ8voa
KHjfYlOJolZXLN3iy8DabmCt94VwTzXX5uEvPbiJjS5jhHkY6rP3Mt1NX5Ee++YHetpoMRkmQH/p
MAGaGwwSWmeH4zDKCs8wA+cUnmEGNBSeYQaEE55hBtQSnkFGSyS5EbPWRXIjZi2G9IYfrYD0hh8t
e8ENP1rrgmE/J4EDwgwOnB0fq3oUNTLIdXSMzG6QR/EiDzfIo2KRj8PkSabC+xvkUZvCD4Pk/6HG
KQn3EAAA
;
  
  
   gzip+base64
   18  '2/split/1000000_molecule_0.cif'  4b9ad507dae17eb838f111ac6bbcba3b
   e8b03f22db2c3a64252563bc8c0632cb9ffe9d44
   ?
   output
  
;H4sICMYnf1QC/3RtcEQxTUtPSQCVm8tu48gVhvd+Cu7sBmyBdS9OVo3eOAl62phcFjMZELRM28pQ
kqNLj9ULP3vqwjpVpC0WTycYFKX/o0ieC8Wj3w/NoalJ6f7V623XLo9dW5cX3Xb7Ul/UL8f7rm6O
h+ftrt406/bi8u652RT/NP95vi7+sbi8uPza7Hbbw3XxN7vxS7tpjg+rTb/5tVntt5tNe/zeXhf/
Nq/4He7b5WG13dSH1aFrL/5y8dvtG3v7+erL7Rt9+/Qm3n62278vPnd35oVvb/rt9rpoiu2mvXlY
rdvN3rBNVzTdcb3abF+et/uX5+Zgd1T/d3vcmffq1X5/bIv3/6oosadTPx67biS5/Lw8NMWX3Wl/
aLpu+7RrXp5Xy8acrT/q4stl3MlL82R2strtD8OdkFKxkaprxiKr4lH1fWtO6IODFjJqTm2z++C0
CmrCd1Ev266ru3bzdHiumw9UaqGVZlf001B6/4GUlAsudVVekXKkXn6klotS6vKKB22zeTJp1HQm
MO9CUC7gWL3svj28P9pKLAhX6ed78VOzXk/uc902++OuNXlyqA/t+qXdNQez7a5SJd3JP6weH3eb
ulnfrz5QvdPtmodV4xJ2vd1sl8+77bo5bE0cfG6YzHuv3JuALWMwLx9XJnsft8vjvti3Tdc+FIfj
fXv5AXk4vaRJ8HX79/80H8j+bL63PiJOtlA+5YKufew2+/rwbC5tvW5eY6JUC/1O1q3Wq0P9nAhJ
eVaz2vSam3OiP9IdsbOaZEf8Y1GX7Kg6K4n7ocTkwPahfji+dKZkD21twrs7jSqFEMZ64X63rJfP
7dqIu/pxu1sfO3O5tqv2cCour76I4pbI4mdafPrtc3d7R4tvuvj9cgLdH9cu2o5UxefOwga6owll
jt8kQ93t61/qx2ZpMskUiulCCx/BCdmTbSCLUmj+kezPwe4WtJTVtMy8Zj6USXpR26Z9qJe7ts/z
1nT8h4vLvz78VCxXj3BjMOnDSnsJ+Q0hNyUryuonyn7i8tei2TzsVse9Pc8zVyU22I5oc3108Y1w
Xtwx2V+cB3sv8oVjemo3aIU37yX33Xb5x6BluX99GwgfftysDvv610G3uqj3p7U5x92p3r80ZldP
u+3xxd8Rbm++2mO8K8ilvwkWUdz+77j6Xr9s93Wzr19PP4rL1+vidF38uAz3S9MX1vXetATT7u/b
Ln3B1rXd1f128PLjzgSjfn3/0un9Sz/Sl/5lbnLb2oTRHVX6zna5PL40m+VgDz4BXFd87Jqnffqe
CdbSvXrxjRTfinJBpOZlaRaVon5RSqnMYlEyVV2pTwUpFsXDxTfp5IIQ6VSyMvnh5BX1ci7llQa5
8nsv3b7M3jXxe6eEV04uKLmqQK6d3IiJU+lK+I8xFSD8wVQ67v2OFHf2YERVVlalzDlQJ6esklZO
zS2KBfktrUlNBC9uixu2oFr5Y1JC2U+7saccDkoa5JfCXiVPUU9RHMU8RXAU91SJo4SjjJZQNhuS
DiI4SDmI4iDtIIaDKgdxDMRqIoUPcE+Zq89p1af0OYh6iKIg5iGCgriHShQkHAQZMYuRjiEoRjmG
ohjtGIZiKsfwucw34gpXmOZg4qpZ33tyrYq4wnUUxVHMUwRHcU+VOEo6iszvwMTVoIUoDtIOYjio
chDHQLYGuY9VTxHTiZUMlXsWox6jSIx5jCAx7rESiQmHQZBnUtJRBEkpR1EkpR3FkFTlKI6gwu3U
RZpx5nNelUr3GNOyx9gIo6KPNA5joo80DuOijzQOE8JHWpqQz6ek8JHGUUr4SOMoLXykcVQlfKQx
lL+vukj3mGnaFaW+E5ynqOz7L4pisu+/KIrLvv+iKOEoyI15kJS+aaMgJX3TRkFa+qaNgirpm/Zs
iKWlXBGifav33/Jtiyy59pgmIwxKGYdBKeMwKGUcFkq51JrOp0Ip46hQyjgqlDKOCqWMoZJS7jF3
hr4VTFBQyigKShlFQSmjqFDKfW7Mg0Ipo6BQyigolDIKCqU8G+K2lEOAddlTRPXP6YSLqn9OV8mD
t6UgwCgKAoyiIMAoKgSYVH1WzIFCgFFQCDAKCgFGQSHACIjFXt1T5jrSUvWFfx6DXo3DoFfjMOjV
OCz06j4zZlKhV+Oo0KtxVOjVOCr06vmUSO/KoqqEx3gZvq1RQT3GRDJzE+ldGYdBpHEYRBqHhUib
foagQqRxVIg0jgqRxlEh0hgquSv3mCk3UfXf2s5T0LRRFDRtFAVNG0WFpt3nxjwoNG0UFJo2CgpN
GwWFpj0bkukEi4dbeG56LtMJFoqCCRaKggkWigoTrNk/CshkgoWCwgQLBYUJFgJKJlg9ZR71ytCt
JzCYYOEwmGDhMJhg4bAwweqDPJMKEywcFSZYOCpMsHBUmGDNp9RgrlwxNutHKjWYK2OoOFfGUHGu
jKFgrjz3tzeVzpUxEMyVMRDMledD6VzZU+ZpiOj+eXcCi3NlFBbnyigszpVRGMyVfZBnUjBXRlEw
V0ZRMFdGUTBXnk3ptCoZrao5vwU7CqoSRUFVoiioShQVqnLuT9wOClWJgkJVoqBQlQgoqcqesgXD
ed94z2NQlTgMqhKHQVXisFCVfZBnUqEqcVSoShwVqhJHhaqcTd2F32Dv3DdYXlZkhuXiLvwGe+e+
wWIo5imCo7inShwlHUVmO0nuwm+wd/YbLAbSDmI4qHIQx0C+Kl2seoqYdisq3T+FnsWoxygSYx4j
SIx7rERiwmEQ5JmUdBRBUspRFElpRzEkVTmKIyjaT3tdpKuSCe5usUJI5kaIjJtitlQ1pqjsqxJF
MdlXJYrisq9KFCUcZb+8Sy7nQlL6UkZBSvpSRkFa+lJGQZX0pYyA/LTXBbinzHXknCk/OjyPUdGX
Mg5joi9lHMZFX8o4TAhfyn1mzKSk8KWMo5TwpYyjtPCljKMq4Ut5NvW5I/2493Pn7GuCKuVAUdHQ
A+y4yYJcXvEhSHuQYkHWgwQL8h4ssaDwoPn+zxVl8znpOYLllOcoltOeY1iu8hzHcX4A7GPfg6YE
ean6G/15jvYcRXKs5wiS4z1XIjnhOciXmZj0GEFiymMUiWmPMSRWeYzPxpy5Hf78arWvX7bdad26
v/U5tftgLx+onH+7t5m/f2O7Wz2dfzdY2s+8Zz5s9XD+vdfTj4/ePOyazb47Q/Zvvk68d5p478MP
XB+7w7nX6539UwZnaCeF7TLCXOrX69P1j8KuS/c/XhDnYZfTClWY/08qtP0rjymFNadPH0f0o9PC
L4LOrm+4kd2QqKRBSROlXd+wkZIFJUuUdn1DR0oelDxR2rURDZUiKEWitOtyJJRBKBOhXw+FKghV
IrTr8UHqINSJ0K7H510FYZUI7Xp4KXuPOC38ghU3r9c3p+sbc93N5o0/UtDSoKVDrd00V36gZUHL
hlq7aa79QMuDlg+1dtMc60ArglYMtXazHEplkMqh1G6O9qqCVA2ldnN0sDpI9VDqNwfSKkirodRu
xksbLd2k8IuY+8LnfiKkQUgToV271E+ELAhZIrRrl/mJkAchT4R27RI/EcoglInQrwc6FXQq0dn1
6IN10OlEZ9ejM6mCrkp0dj24NP3wjRR+MUhl7lO5z/tosCaFXwxymftcTsUsiNlQbDddMqdiHsR8
KLabLptTsQhiMRTbzXKklUErh1q7Od6vClo11NrN8QHroNVDrd8caqugrYZau5leYjBE5/p59EDn
+nm0Pef6eXQ65/p5NDdn+nn0M2f6ebQwZ/p5dC1n+nk0Kmf6efQm5/t5dCTn+3n0Ief7eXQf5/t5
9Bxn+3l0Gmf7efQXZ/t5dBVn+3n0Euf7OTiIWS73wTTMcrkPPmGWy32wBrNc7oMbmGVyHwzALJP7
4PllmdwHmy/L5D44e1km98HMy/K5DxZels99MO6yfO6DXZflcx9Muiyb+2DNZdncB0Muy+Y+2HBZ
NvfBfMuyuQ+WW174BeT+KAbgsrVCmgjHAQBjrRWyRDi++uCltUKeCMeXHuyzVigS4ei6g2PW6mSi
G110MMlanUp0oysOvlir04ludLnBCmt1VaJ7d6179ysv/CJN+XGrAc+rFdOh+F23AaerFbOh+F3D
AX+rFfOh+F3PAVerFYuheNx2wMtqtXKoHXcecLBarRpqx80HfKtWq4facf8Bt6rVVkPtuAWBR1Xk
+j7YUkWu74MTVeT6PphPRa7vg99UZPo+WExFpu+Dq1Rk+j4YSUWm74N3VGT6PthFRb7vg0lU5Ps+
WENFvu+DIVTk+z7YQEW274P5U2T7Plg+Rbbvg9FTZPs+2DtFtu+DqVNmnmHBxykzz7Bg3ZSZZ1hw
a8rMMywYNOX0Myx4MuX0MyzYMOX0Myw4L+X0MyyYLeWMZ1iwWMoZz7BgrJQznmHBTilnPMOCiVLm
n2HBOinzz7BgmJT5Z1iwScr8MyyYI2X+GRYskSqT0+CCVJmcBuOjyuQ0eB1VJqfB3qimcxocjWo6
p8HEqKZzGnyLajqnwaqoZuQ0GBTVjJwGW6KakdNgRlQzchosiCqf02A8VPmcBruhyuc0mAxVPqfB
WqjyOQ2GQp3JafAQ6kxOg21QZ3IanII6k9NgDtTTOQ1+QD2d02AB1NM5Da4/PZ3TYPTTM3Ia7H16
Rk6DqU/PyGmw8ukZOQ0GPp3PabDt6XxOg1lP53MaLHo6n9NgzNPZnI52vMz8PDrwMvPzaLrLzM+j
zy4zP4/Wuun5eXTTTc/Po4Fuen4ePXPT8/Nok5sxP4/muBnz82iJmzE/j0a4GfPzaH/Lz8+j6S0/
P49Wt/z8PBrc8vPzaGvLz8+jmY1Oz1Gif41Oz1GiZY1Oz1GiS41Oz1GiMY1OzlGiF41OzlGi/YxO
zlGi44xOzlGiyYxOzlGir4zm5yjRTUbzc5ToIaP5OUp0jtH8HCX6xWh2jhJdYjQ7R4neMJqdo0RH
GM3OUaIPjGbnKKn7i2QmKanhi2RmKanHi2SmKamti2TmKamTi0xPVFLzFpmeqaR+LTI9VUktWmR6
rpK6ssj0ZCU1YpHsbCW1X5HsdCU1XZHsfCW1WpHshCU1WJHcjCW1VZHclCU1U5HcnCW1UJHcpCU1
TpHcrOX/6StHBrZaAAA=
;
  
  
   gzip+base64
   19  2/aiida.out  d41d8cd98f00b204e9800998ecf8427e
   da39a3ee5e6b4b0d3255bfef95601890afd80709
   ?
   output
   ''
   .
   20  aiida/metadata.json  2591d6d0212f997641028d68b74846d8
   efa0ae58d04b3cfb6990976bb75ecfd8df5dcfdf
   ?
   ?
  
;H4sICMYnf1QC/3RtcDBzMGY1UQCtVMFOwzAM/RXUM6qAIzcEEhfEjXOVNC4zS5MucSamqP9OkjZb
B2UrEz059suz42fXF/DZaUPVFoxFrYr7q+KmvC2urwqGKNix/26IOIUbBxUKUIQNBkQI++FCKT4s
EpSCl60WIG35xF+DEQmcQ7FnngO+WTARCC1DeRL5qNvO0YA+S/uCah2Aykl5CvZstOsWET4QGeQh
/8jaR7CUVeiFFLZC1ehFHfGFCsahxT4SCbC1wY6mLl4f3usLA5IRiEqxNvVV8EhjY8kGNg4NREEW
NC9y14TtUEutVSiFKtp1A21IkiDO/lPipG9kbM8nlYyDzA0Yo8nuHJdY51PSKtr9gsHyRYPGUq7f
D3m+OYbhGw+oLCG5vRj9wqH0czKSYcqmbeuYYa3N/pW2dFSBYlyCyMdp6EAxbUkLxELjWD7begXC
STBHqGWtylsw+4JpKSem4j1yXDAW56fi7+8Zl98HKYM4swVrRyFUyYBcXnRa4R+DOlDNZkn5L0rS
L/0X+XEjf5GFZegFrxRbJk9LEwdwKk8z3kiyTew17PbbNXHzbIfvC2xIYOOWBgAA
;
  
  
   gzip+base64
   21  aiida/data.json  a5a989fcf8ec8454582b6e5c69c544db
   cfcfba3e63835d6a9a161a93a4a74449355c82a0
   ?
   ?
  
;H4sICMYnf1QC/3RtcHVzSW1IagDtXGtz2ziW/SsufpmZKlHCG4Sqpmq8sWe2p7vdmTiZ+dBOqfgA
Y070GpFKnDXy3/eCIClSLzN2K+6ttTslgSCICxycC9wDUH3vTbP5x3yyXmeJNz779d5brIvluoC0
hxgPNQ2Vj2KS+AzT1I9QinwpEhKmKk4kjbzBmTcNIz21D8SLRNuMbF7VIOJYUYaxn4Yy9FkiUl8J
pX0SKUEVSQXnyPs6OHua1SztGEUqpVqQ1GcKg1GikB+QOPARTgjFCIsUWvlUo8twFc50oVd5xzYU
1nGgmE9YzH0mU+krghnUKGkSxwT6vGsbcyyggI90LOEZovxARXCJg0RrJNMEyY7tlZ4tCj1JF9NE
r7pd79ONbfOKxlGUMl8FAQLMAuVHKiI+Z1jEiU64iKIt88Uq05908mTTgdQykoj6AZXaZxrsR1JH
fpzGaYAxC7TSx4f6EUYJA7yVQD6G2oGTUvkqQaGvhURcolTjGHeMznSehx90/mTLVFMeo0j4MQuE
pQTxg5TBM1pRhVMYdESO+xNPgc1Qix+xAOiVAmChiGI/CVgsAylYJNDTrW6B3GuUnmr0gD/FoeaR
otrnlEM9Moj9KKCJjykOU5YmiQrSnQGGUURQ3tccwTOMSj+KIgpIYSI1i6IYxz39qVc3tsyzFLxH
p9qPNAF/QirwIxFyHycqkZGOGI1pD396jGkuFE1CKXwRhTDnRAlMtwmDlqR21os40QIfHerHGNVJ
wsNIhb7QEdAjCGAmSamdRLSkSlGuU/KwPz3GMmEaM6QDP2QYLBOYPSMNLilRgqDDEokgOe5PCY7i
KIaxQkKAF8cc2o6R8kOYA4DxnIiYP93qFsi9RmnbqNJJJGAN5QSgZTqBNUJj+IgjmAQYSQC/npzu
1f4t80IypQPr/Ti2i1kIkwGDxTyNqA6A75GUfdaIx5gmLKJSwDrKhaRALwLEYDTwpWQokkAyYNhR
uB9jNOSEMMFhEQwQ+LAMpR8SDJeRgAmYwSIBcctvbZSzGAkuQj9hSWQdifjgQshXKBESwooI0fhh
R+pn+T08ou+Wi1UxScIihAfvvTDLknCY/DvPCj1MouEMvGWaDy+iK+s2tgRVtPyugsXeM22i83iV
LYtsMbePlVlRvJhBk4Gc4zPc7pW9u86b/FmRzXRpDEEcBaEkkm8xGzM65myIKQmEsE/MoY2fYPVw
JuyDxZdl+Zzt39C5w/BN+XVhc+xDy3U0zWIolIbTXENGfNQYURCc2VEDIEgHiF7LVA8g5uvp9FFY
UDoUXEnOemDRLLXD13XqMYg4kxC8VojgDiJ9A4BTUIONuRpyO1PKPXCoFh5xOI3X09BaH8LiUCwW
QHjw5TSbWnxe1alXrXLfDhMMjJAOpkB1UOq1/uyiBC2c5MtpVkyWq2yWFdknfRy4Aw8cxZK+xWKM
gjHHQ5j9qQqOU8uurcNX9qMnQJ36hQhqz5LdKabnansKHokxRUPCFAsey6MS8wZyy6duzqN5xceI
DQniqJmQRAe2vkHZiSYk54EEESW+14TkTCISBEGFCO8g0jc2PikiiAWY9kAEqGPJ8mgUsKSiQoF1
UOgrTk6JAoOoAffhhQteh38tvx6JBcwndupyWHQn375B7YmwKGcXTPn+Veo3xqI0BuwjvMYi6E6z
PfXFKaZZPiZsKLFSnJ8+kquMgRs6IIJu2NJrg2X/gjxbTDVM5j1W4nbJo/jwt3Z9lGMqh0BjkEG7
+IgnLsF2IQF6DLGiSMoSEoa6wW1fXXJKPyFYYCe5vsda4lwTZKYSFSJdlvSVhydFBJSXDE65llQo
UK5IhQLaCs36KfOTzp+BwJR+BxQIVy6C74anvQ449s8XTlk8PFtsyvWaK7AYKi73z6VPnCysATWm
aigoD2gVeAbdAKPvQcpptgRIMFQMljn03LqPjDEdYojDJKpg6kajvc6oTuc70Dw2hFgZS3xK36nM
cAWRl0Ohq1J6nZadGgXGKajy77SyVCYZquPzoDuf9D0LPIX7EOs+sKZQJk8fh1XGuGWgAyLYcpB+
p5In21GD5gXQqACdPjgvjUkJAXDtJl2h0veY9KRYBCog8pSTRWVG8Ea6bocb/c5tT4mCQgFh33GP
tURESgD+q4Xk4A79O9f+e8/FqWm2yovJPHS1nmfZxbk7OGjlXoTguXN3dJAXWbFuA6ZnYVaCU1r8
y3QBC+btIi8eaMarDcp1U2pzADaso6vszlZfrMJ5Xh4+lDjltsD91z2D91/1U2evpuu8CoNsQ3aq
HeplOh3Gt2Xr52E01ZY0xWqtO/bqQcrzsiQMTFidf3j3N164XOp5Min0XXEDWTfeDRS68WbLbLWe
T4BDs3Ce2Du/1pmugD9fusR9sQCE17MJ3F2uFnH+9cZ7b298Xqw+JtnK1TqCPoZFfDu6t7yzXfk6
KjGdQI0jV9NypbfaAiiDZjybLsLkLJsXego2RmyIh9Q9keg0XE+LxvRkqVeTWRjfZnN9U0Z/JcJ5
fKttRasNFtP1alZ6QbNJRGkMEYgPcgYWY2m3ytI08kMepIgnlNAwBSZYKnxYLdbL5u2h+6+VZ0zC
AgYlAi7kANt84yibM6TqgHIZFreVU3YOVnLtQ/unPhAkb7vtDLqYLafat8MWATE/5n5zhLapBVc2
3CnkZJrl9v6vrpLtz/e1b/x7EWXzdLGxBhmTsmfV9Qa8vAgLvbmx3Uz7UpUd2MnmILRd6Urni/Uq
1hv+g6dY2rjhyjeF22Rqj+imxLFxb2FS4V0RsdWlbkdm4d3kczidxhbaSa5h9JJWcxpE82z+Yaoh
St6A+74DkAUULuKP9eSWWDutM5Asn5Tzyqbylvu1LZbt1nc6bpPFYt5ykU1ueRA6WU7XH7J5hxLy
WyjxQoxnIEZ9iOH8edIcb9sq2lv6s4RvDFtL1WqwGWtWT0bVnm97y3P/xFPtAz6ZlHvot5+q7Z22
Qx2u950e6nC9M/NQOfkMfaw3CF7m4t+ly1X7Ekk02SzSdWe6eK9X0869zvUW2VwJh2urPw09O5sB
e5f6tjg+ECo4xdgWTA9PDOiwv+2JXY4ELJsgbqZXH7/krQCO6hHloz4vsx0Jd6rI9Wi4Y8scDXeq
SB0e8JqwXa/KIHrSsMPPiwRKDIu7YvcGlC5v7HFLGzA7n3TxqZIIIxeKgpyYapdbGvWhhe5O27Fu
nHBytZTUd4/8493lu8sLV/4/a73WpWZx98p4v1VV5WdNVeF8vijK/TpX/vUqW6yy4ot7ZBV+Ll93
qkL4VotfV/a65eejypYbY5fGna8/1k/8yV23GkjRGFXVb1JXo3OXaAHzvgZh8XmuK43QtpiASgEy
J3932LsCF1XmWTUiZ4sIMuaQ8Tkrbs8qsXL2hzyM4+LM99PFahYWfz6fAolevX53PTiP48V6XgzO
83wR/3AxOP+kId9+vbZOYRNvrq/t1z9/vs7+Rw8qCTYAlTfT8CCUfgvzSf395vxfgwu9ymB+vbzL
Cru1PLichstcJ/CdfchAkw0u53BR3/0bWP2bFRAD6Bmk4fMKRnrwc3hnLbsv+/JZlXwb5h9tsmpP
k6qLuCtXKpvbzrgvd79Mljevyv5f2ex8YD9/An8ZXNl7+aAezwEId+AxMGnwj1+ubefe6P+UD77R
4KLQS5v4ZK1U37bMdQFP2c9CD67X0SyDi3Vu10Uof/0F8JvZJyxeU/sOyOAt0HVqs94BAFbGlx+Q
AUNmJwOrZCEJg5z/ueTrH25u5m90sV7NzyyI4zMEGf5T/uB5NwWMIdXww1T8MBU/jOOHqflhHD9M
ww9T8cNU/DAVL8yGH2aLH6bih6n5YYAfprkL/DAlP0zJD1Pxwzg2mA0/zIYfpuGB6fDDdPhhHBvM
hh9mww9T8sM4fpiaH8bxw9T8MA0/jOOHqfhhan6Yihdmww9T8sOU/DCOH6bhh2n4YRp+mJofBvhh
LDVMxQ8Dg4WFKW71IjcBR8b+NdshxiA754yhBPyDZHWNsGlvMnH7lsS+PMLKhzAKSFDZKNlnmmnL
NH/WhokIYsZwKYVrBGThyiYhm4T9t2OLmle//Pz6p8u3lxd7W1c1verDEEOTIEWbLDykFMxxgmlg
3MRZ5RNESpxaMG0qM0qg4EfD7TGN+HEXO2S7cAQ3aPch3IxDaxjZCMG4T2etxAltjLrLplHVNa4R
LWHG5oerf57/BASov78VRLi7BSIS1NR4ImXqNGL8CGCUEsJ+NNByjNhpEENmOcsmsKjffanN1ZjU
Vp8PMmZqXhFs6jTmwkLmZlGIl8buooo4NEQw4NVJK5C3QXgdzZeBS4BQuTXXKBwXmXh7RY538cvV
pdeWOd7uCaZ3SPZ0X8zvp37wcemDH9Y9WOxVPU+PoVuayfvrD1c/XP/35YV3RDlZqJ+mnHbeMSNq
iIMgcD/Z2LO3VW/ydzV2ucu+R2F7o9vFTNd45Kt4BIPrl6M7gnB//nFUygS3SZ6PDrzXuyXF661j
UBlnnfpdvu1+fjNv7y9vjBJFlLer+b3Db7l6R7fbjkiSsprTaRN6UJvI36k2oc+tTeSLNnnRJv21
CX3RJi/apL82KUPKljRB20EYH1Oym8fpXmlCG2kid6SJ4IekSStB8F5bB0PEsnXbISLnXWkC0TXe
J01c0cORtv1vP2BH0OL0IFouvKYdQYIcMqiV2MTU5TWu0esZUz8EGN+NqQGWOhmQlgyhzwBOW3v8
LsAB+tZJ4HqTBkadQnDQRwmOreDv/7rwIGyk8ajPL86eV3hw++MWKRAi8hFnpx4mHIdcYiRSGjHJ
E54oKSijSglMWNnB1gFKK2r/1gPWp2O9/3j25Lqq/SuNY+pno7i3ZddZ+ddLfHWK7pNg335c7EWB
hkUmSCDIjjRWzP4eN4wZ4TqgRNOdMcao/Gs6PsG2e97uAbPHIhUmHMkk1FjqKKBBCstcGIsoiqPQ
veB9tGbU1Cy/+7huxutxo/pUMX30UPx7n9ghdUgVB+z3qYrrFj+bKrbAvKjiF1XcUxUj9aKKX1Tx
b3liR8ZU7ObxvSd2SJlm2tqWxQwfOrHDcpOAf7u2jgiZsnXbQkbKbVlMqdori4nAB5Uflj8aG54+
+syO7FGBDXLG4bV1ZmetlUi1zuzc5UYPumtcY9pTDz4E4x49yNB+sYy/WSw/HaYtsVxh8ozg0EYs
Ey4acAhWpxDLSP1/Pp1DbMTDUZ+feT6vSKZjRIdcKkL54bcdPYUVdf8zlHqAK73iNW89erdFsRyP
Rp8/fx7GK5j0ofWLD6tweftlONeFFR2j6iE7zH9pV9mrhm3FVMyWby9/+tc88LZepfRedR8++wWW
ojP726IozEutWqs/EYWcgFKLFaYg15BSXCQyoAlGNMbEO/4OZvNu4d53MJ/OjaNvcHqxDpkgIeUi
whwlKhYpZyJIozCShLvfeR3bnjj2mufX/wUfGKL681YAAA==
;
  
  
   gzip+base64
   22  aiida/nodes/4f/9b/2efe-be20-4098-b6a5-1d9d7beb43c3/path/aiida.err
   d41d8cd98f00b204e9800998ecf8427e
   da39a3ee5e6b4b0d3255bfef95601890afd80709
   ?
   ?
   ''
   .
   23
  
  'aiida/nodes/4f/9b/2efe-be20-4098-b6a5-1d9d7beb43c3/path/_scheduler-stdout.txt'
   d41d8cd98f00b204e9800998ecf8427e
   da39a3ee5e6b4b0d3255bfef95601890afd80709
   ?
   ?
   ''
   .
   24
  
  'aiida/nodes/4f/9b/2efe-be20-4098-b6a5-1d9d7beb43c3/path/_scheduler-stderr.txt'
   d41d8cd98f00b204e9800998ecf8427e
   da39a3ee5e6b4b0d3255bfef95601890afd80709
   ?
   ?
   ''
   .
   25  aiida/nodes/4f/9b/2efe-be20-4098-b6a5-1d9d7beb43c3/path/aiida.out
   1251a57106f3b475d5d976343996124d
   723d198f48d56102cb775afe9fcdeec13c049bba
   ?
   ?
  
;H4sICMYnf1QC/3RtcGpfYmU2OADtnEtz20iSx+/6FLhJHSEpUO+q3pNb3RHe3Whb0fM4zOwEAqYo
izsgqeWjx/LBn33qmVWgRBRyYg57sGfUAZD/HwhUZSaI5B946A99R1r/r1tvh+XiOCy79mLYbp+7
i+75+Gno+uPhabvrNv16eXF5/9Rvmj/a/zxdN3+4vby4/LXf7baH6+a/3Mpvy01/fFht4uqv/Wq/
3WyWx9+X182f7Sthg/vl4rDabrrD6jAsL/7j4q/vv7FvH67u3n+j3374Jr59cOt/u3033NsXPn7T
395fN32z3SxvHlbr5WZv2X5o+uG4Xm22z0/b/fNTf3Ab6v53e9zZ97rVfn9cNq//mSxxh9M9Hofh
RHL5bnHom7vdy/7QD8P2865/flotenu0Ya+bu8u8kef+s93Iarc/jDdCWsVOVEN/KnIqnlW/b+0B
vbHTQmbNy7LfvXFYDbXTd9EtlsPQDcvN58NT17+hUrdaaXZFfxhLP70hJe0tl9q0V6Q9US/eUsvb
Vur2iidtv/lsw6gf7MS8moL2FvY1yD4tD6/31ohbwlX5+UH8uV+vJ7e5Xvb7425p4+TQHZbr5+Wu
P9h1P0pG+oN/WD0+7jZdv/60ekP1SrfrH1a9D9j1drNdPO226/6wtfMQYsNG3mvl3k7YIk/m5ePK
Ru/jdnHcN/tlPywfmsPx0/LyDfLw8lwGwa/b//6f/g3ZP/rfl2FGvOxWhZBLuuXjsNl3hyc7tN26
/5IDxdzqV7JhtV4duqdCSNqzmtUmam7Oif5eboid1RQb4m+LhmJD5qwkb4cSGwPbh+7h+DzYlD0s
Ozu9u5eTTCGEsSjc7xbd4mm5tuKhe9zu1sfBDtd2tTy8NJdXd6J5T2TzgTY//PXd8P6eNh9187fL
CXR/XPvZ9qRq3g0OttA9LSi7/zYYumHf/dY99gsbSTZRbBW6DTM4IfvsCshtKzR/S/aP0eZuaSvN
tMy+Zj+USXrRuaJ96Ba7ZYzzpa34DxeX//nwY7NYPcKJwYYPa90Q8htCblrWtOZHyn7k8i9Nv3nY
rY57d5xnRiUX2IFoOz66+Ug4b+6ZjIPz4M5FIXFsTR1GpfDmteTTsF38fVSy/L9YBtKHHzerw777
y6haXXT7l7U9xt1Lt3/u7aY+77bH53BGeH/zq9vH+4ZchpNgk8XL/zuufu+et/uu33dfXr42l1+u
m5fr5utlOl/aurDu9rYk2HL/aTmUL7i8dpv6tB29/Lizk9F9ef3Sy+uXvpYv/cme5LadnUa/V+U7
28Xi+NxvFqMthADwVfFx6D/vy/fsZC38qxcfSfOxaW+J1Lxt7YJRNCy0Uiq7cNsyZa7UDw1pbpuH
i4/SywUh0quksfHh5YYGOZfySoNcha23flt265qErVPCjZcLSq4MyLWXWzHxKm1E+BibASLsjNF5
6/ekuXc7I0xrnErZY6BeTpmRTk7tKYol+XvakY4I3rxvbtgt1SrskxLKfdqNO+S0U9IivzVulAJF
A0VxFAsUwVE8UC2OEp6yWkLZbEh6iOAg5SGKg7SHGA4yHuIYiHVEijDBkbKjz6mJIX0OogGiKIgF
iKAgHqAWBQkPQUTMYqRnCIpRnqEoRnuGoRjjGT6X+Uh84gpbHOy8ahZrT61UEZ+4nqI4igWK4Cge
qBZHSU+R+RWY+Bx0EMVB2kMMBxkPcQzkcpCHuYoUsZVYyZS5ZzEaMIrEWMAIEuMBa5GY8BhM8kxK
eoogKeUpiqS0pxiSMp7iCCqdTv1MM85CzKtW6YgxLSPGTjAq4kzjMCbiTOMwLuJM4zAhwkxLO+Xz
KSnCTOMoJcJM4ygtwkzjKCPCTGOocF71Mx0xW7QNpaESnKeojPUXRTEZ6y+K4jLWXxQlPAWxMQ+S
MhRtFKRkKNooSMtQtFGQkaFoz4ZYmcqGEB1KffiW70pky3XANDnBIJVxGKQyDoNUxmEplVut6Xwq
pTKOSqmMo1Iq46iUyhiqSOWI+SMMpWCCglRGUZDKKApSGUWlVI6xMQ9KqYyCUiqjoJTKKCil8myI
u1ROE6zbSBEVr9MJFyZep6viwttRMMEoCiYYRcEEo6g0wcTEqJgDpQlGQWmCUVCaYBSUJhgBsVyr
I2XHkbYqJv55DGo1DoNajcOgVuOwVKtjZMykUq3GUalW46hUq3FUqtXzKVGelYUxImC8Td/WqKAB
Y6LouYnyrIzDYKZxGMw0DkszbesZgkozjaPSTOOoNNM4Ks00hirOyhGz6SZM/NZ2noKijaKgaKMo
KNooKhXtGBvzoFS0UVAq2igoFW0UlIr2bEiWHSyeTuG17rksO1goCjpYKAo6WCgqdbBm/yggiw4W
CkodLBSUOlgIqOhgRcpe6rWpWk9g0MHCYdDBwmHQwcJhqYMVJ3kmlTpYOCp1sHBU6mDhqNTBmk+p
UV/ZMDbrRyo16itjqNxXxlC5r4yhoK8897c3VfaVMRD0lTEQ9JXnQ2VfOVD2aojoeL07geW+MgrL
fWUUlvvKKAz6ymGSZ1LQV0ZR0FdGUdBXRlHQV55N6TIrGTVmzm/BnoKsRFGQlSgKshJFpayc+xO3
h1JWoqCUlSgoZSUCKrIyUi5hOI+F9zwGWYnDICtxGGQlDktZGSd5JpWyEkelrMRRKStxVMrK2dR9
+g323n+D5a0hMywX9+k32Hv/DRZDsUARHMUD1eIo6Sky20lyn36DvXffYDGQ9hDDQcZDHAOFrPRz
FSliy60wOl6FnsVowCgSYwEjSIwHrEViwmMwyTMp6SmCpJSnKJLSnmJIyniKIygau71+pk3LBPen
WCEk8y1Exm0yO8qcUlTGrERRTMasRFFcxqxEUcJT7su75HIuJGVIZRSkZEhlFKRlSGUUZGRIZQQU
ur1+giNlx5FzpkLr8DxGRUxlHMZETGUcxkVMZRwmREjlGBkzKSlCKuMoJUIq4ygtQirjKCNCKs+m
3g0ktnvfDd6+JqhSHhSGphrg2k0O5PKKj0EaQYoFWQQJFuQRbLGgCKD9/s8VZfM5GTiC5VTgKJbT
gWNYzgSO47jQAA5zH0GbgrxV8UR/nqORo0iORY4gOR65FsmJwEG8zMRkwAgSUwGjSEwHjCExEzA+
G/Pmdrj9arXvnrfDy3rp7/V5We6TvXyk8v7taDN//cZ2t/p8/t1kaT/znv2w1cP59768fH3rzcOu
3+yHM2R888vEey8T7735gevjcDj3erdztzJ4QztpXJURdqi/XL9cf23ccuv/xxviPexyWqEa+/9J
hXZ3eUwpnDl9ej+yH502YSHp3PINt7IbkpU0KWmhdMs37ETJkpIVSrd8Q0+UPCl5oXTLVjRWiqQU
hdIttydCmYSyEIblsVAloSqEbvl0J3US6kLolk+P2yShKYRueTyU0SNOm7DAmpsv1zcv1zd23O3q
TdhT0NKkpWOtW7UjP9KypGVjrVu1Yz/S8qTlY61btfs60oqkFWOtW23HUpmkcix1qydbVUmqxlK3
erKzOkn1WBpWR1KTpGYsdat5aLOlmzRhIce+CLFfCGkS0kLoln3oF0KWhKwQumUf+YWQJyEvhG7Z
B34hlEkoC2FYHulU0qlC55ZPPlgnnS50bvnkSEzSmULnlkdDE5tvpAkLo1DmIZRj3GeDNWnCwiiW
eYjlUsySmI3FbtUHcynmSczHYrfqo7kUiyQWY7FbbU+0MmnlWOtWT7erklaNtW71dId10uqxNqyO
tSZpzVjrVsshBkN0rZ5nD3Stnmfbc62eZ6dzrZ5nc3Olnmc/c6WeZwtzpZ5n13KlnmejcqWeZ29y
vZ5nR3K9nmcfcr2eZ/dxvZ5nz3G1nmencbWeZ39xtZ5nV3G1nmcvcb2eg4OY1WIfTMOsFvvgE2a1
2AdrMKvFPriBWSX2wQDMKrEPnl9WiX2w+bJK7IOzl1ViH8y8rB77YOFl9dgH4y6rxz7YdVk99sGk
y6qxD9ZcVo19MOSyauyDDZdVYx/Mt6wa+2C55U1YgNg/mQNw2TohLYSnEwDGWidkhfB09MFL64S8
EJ4OPdhnnVAUwpNxB8es08lCdzLoYJJ1OlXoTkYcfLFOpwvdyXCDFdbpTKF7NdbR/cqbsFCG/Gmp
Ac+rE9Ox+FW1AaerE7Ox+FXBAX+rE/Ox+FXNAVerE4ux+LTsgJfVaeVYe1p5wMHqtGqsPS0+4Ft1
Wj3WntYfcKs6rRlrT0sQeFRFre6DLVXU6j44UUWt7oP5VNTqPvhNRaXug8VUVOo+uEpFpe6DkVRU
6j54R0Wl7oNdVNTrPphERb3ugzVU1Os+GEJFve6DDVRU6z6YP0W17oPlU1TrPhg9RbXug71TVOs+
mDpl5RoWfJyycg0L1k1ZuYYFt6asXMOCQVNOX8OCJ1NOX8OCDVNOX8OC81JOX8OC2VLOuIYFi6Wc
cQ0Lxko54xoW7JRyxjUsmChl/RoWrJOyfg0LhklZv4YFm6SsX8OCOVLWr2HBEqkqMQ0uSFWJaTA+
qkpMg9dRVWIa7I1qOqbB0aimYxpMjGo6psG3qKZjGqyKakZMg0FRzYhpsCWqGTENZkQ1I6bBgqjq
MQ3GQ1WPabAbqnpMg8lQ1WMarIWqHtNgKNSVmAYPoa7ENNgGdSWmwSmoKzEN5kA9HdPgB9TTMQ0W
QD0d0+D609MxDUY/PSOmwd6nZ8Q0mPr0jJgGK5+eEdNg4NP1mAbbnq7HNJj1dD2mwaKn6zENxjxd
jelsx6v0z7MDr9I/z6a7Sv88++wq/fNsrZvun2c33XT/PBvopvvn2TM33T/PNrkZ/fNsjpvRP8+W
uBn982yEm9E/z/a3ev88m97q/fNsdav3z7PBrd4/z7a2ev88m9nodB8l+9fodB8lW9bodB8lu9To
dB8lG9PoZB8le9HoZB8l28/oZB8lO87oZB8lm8zoZB8l+8povY+S3WS03kfJHjJa76Nk5xit91Gy
X4xW+yjZJUarfZTsDaPVPkp2hNFqHyX7wGi1j1K6v0ilk1Iavkill1J6vEilm1Laukiln1I6uch0
R6U0b5Hpnkrp1yLTXZXSokWm+yqlK4tMd1ZKIxap9lZK+xWpdldK0xWp9ldKqxWpdlhKgxWp9VhK
WxWpdVlKMxWp9VlKCxWpdVpK4xSp9Voe3nxqNfn+1OrvT63+/tTq70+t/v7U6u9Prf63P7UaxvX7
06r/vzyt+o40d85AzlR42gYz8YGORJDwMCylbEm0Xxt+bh4u7qhXaxkfuMO51vEWc8O9WutCzYLa
tOEme2EIi2rlb4gkJN6u4dXcqw1lYU+kIiQ+tYn6PSGCXYmk/kCaD26TUoRNckFFVEseHxei3Tkk
PaqavPMP/OWGhZvieRtJVxU8IMuH6pKfvFyoNsitONyTTOwFwRvyuyCncTy43bEgN4q+If85PFra
PVYh7AzT8QEaOmzd0FL+S5BTEVSspWGByDhJIzkNh6ppHBJOVRhJqvzY2nojSnk4VKPiEfI2yYl8
Q87C1pUhcZ7cg4a9nJkwq6zcGRa3rkXYGdnGZ3Dbg1Gv5Tzuu2jj1nmMgtZt3Mk1L+Vh69qQ9GBv
rWL4+nkey+9E7J/d+ftz4/BIGSeNUBIiwZgclh9oZD64+2TSsSoWMyA+W8yFm8l33L+nd5FyD4y2
8RWOQdnvF3Hv4kMjR1FBfy4gyoSKD1eJT1mhVL8RqPSXAiImPmVGExrHQcs3IPGuhJiM+anjoJM0
8USX0E8l1EoaH3WqSXp6sXkFfb/p4l+86cLV5embHVwtptMKW3/ZtMLWXD6pcHW2ctOFq6z2b1pj
89T+TWtsDbV/0xpbOO3ftMZWS/s3faOI3Wda2WdXF2lln10xZJXtuArIKttxZY9XtuNqHZ/eTi5w
YvIHglzU6KSuqGP0rqKE4kV/riihYtFfppW5TIl3FSXUJvHTpPKfEvvR061rAAA=
;
  
  
   gzip+base64
   26  aiida/nodes/09/f3/e62f-491a-4290-82c8-01d231016fde/path/tmpTELWn8
   b6ba524b9c9139ad09956d783d103c12
   2b6feae22d5b16ca76b9499210c82d9be0a6ef74
   ?
   ?
  
;H4sICMYnf1QC/3RtcHkwaUlYRACtWmtz27rR/q5fgZnTGcmTiCIAgiDyvm3HlpOx2yT25NLp9JxT
Dk3REluKVEnKjvIhv727AHiTKH/I1JOJxN1nF4vF3kD7l/n/9Gfyyx+uozp5Q5hL+ZyyOQuIK9/g
P5+8cuGHzD5H9WsC9Osk1rAL8gcQ+5Q8pVVa5G+IooozTfv66f0b8phmyZvFYrEptskiLlZJuaie
8nmZ7IoqrYsyTSokL+L0cUEXrov/qKt/HKChov/1Hie/kC+btNKmEfiMnqI0ix7wISf1JiHL8lDV
UZYV6zLabQ7kbpfkBBwTPURVQmbLu+uL16BkU9c72Nrz87MTDyWcPKkXDqySENjhOs2jjKxAnjwW
JawAayZ5XR5Ax3NSJmRXFk/pKlmRhwO5/bosyV+KfQky1etmjX9ZgpPu49IpyvXCsftIzDa20YE8
JGRfgZbnFJYwO6niFFZKH9OYxMV2u8/T+kCqgmRFviZRBRpg7V1Skqiuy/RhX8MRokvW6RNsuS60
Ers4ico6jWGtx7LYkudNGm+QDTr01vROioc6SvNkhdYhNbRHOcmKYhdOwt3+IQujfb0pyjCPtslk
er+JcthGlG9ek8/OdDL9EJVlASH2F3z4lOTRfpXm9vFDlFZFnif7p+Q1+RtQjMIqidHwsE7rLJn8
3+TXmx/8x8fZ8uYH+3HxQ/z4iM+/O5fZPRDufgQ/bl6TiBR5Ml+l2yTHuMXtZfttmhe7TVHtNpAF
oCi0Ww/Tqton5PRHdRDcTvi4z7IjyPQyBu8MQyqNI9itsZosp52SXbQGJWlZ1UMl1JX8CJVFxyBE
eR3qqYANjRgt/A5zSKJyZFuQ2HBmYbxJtmBqFkLYbvdZFG6LNIEAarc2WwpyQ33ykZGLXy+zm3tG
7gLy+3REtNpvB17RkpJcZigMQvdsTOo5SdebbpucMYeCI6pdFCfhuiz2u/D2S5jvtw9Jfx8U3FAd
ttsEkiyMkwxDpK5TiPnuZ1vkRZyleRr3sH3F+kBvIjzQ6fyesEM+fRE5/4D7uieUMLrICQU0xm4d
xmUS6fgEyU2x6tnw+ebt+7+/nys5MVZG+TpLwiiD+DuJNNfRR9LBHpI6Og1I4VBPujPqXgzA62i7
fVFn43EsEVX4jz7Ms5Asydf1JoxG4kU6gQz4jF0MoQ8jUOo6nh+ovokWHY+hfcf1A3fmNdhtElX7
MoG0rcMyeczyKtRFDwPbdeUIqk62UOGiGp51aCu/s3OA24BDw230zaaAcgJ+HgYF1sAczizqXMLh
NjhVDuxZ4MLFdrfHYDRSsAmomKi6CYoPl5++9GG6kMZFltmCYTNI46AfpygMrYIq5UcX0xPJMlnt
+4IgiWH35b3yj6QfhtLbAlaEmChDW7QqLX19e/nh7uM1mV0l5TopN8XjoxEfSmNlhlw2gQ/ltEyh
xhK7dB9Y1SXYB+4duMIY+V5xsHGTZKsyjf+tl+HDZTrpCtzfbNNIfw78Y2kXpVfp42OZh9H2IR0J
kC5ELK5/+iuYc+KkdaTxnjkyouFRXMOkA9udjsoPSsD0t2fo0FFeddgyWqXWZ1ifNtBqI5iSCDFH
AF3pFFlBMY+7uJuiE+ePRbyvSJVEGSRHvX9IxtaoD7t+vH4o/vpbNAJ7jp4Sk6Ma5kjTjhqcycLo
KfwUJv/Zp0+wZF5DrDguD8ZgVbreRrcLmJFutTpXYAoNYVm6hcq56dIR6sZZTJOLZH4O9O++In4W
01PkjYOyniJ1FtLpYfQYdNKsSKD4iaqjYtTVo1FYu15Tj5JvuxpK/0NVlDtoQEXyCCOgDvbtXvvc
Y+oUVZZ2kPpiVnaUDF5G4cJO4HkvoGyMVdDZ55BoaYkN/hgPU2icVBWkF8yPWaVz6/L68urzcf7q
ImNk7cyNlRESoO9QpJQZ6DuGrnDYqw/WiToYHB+PaByGiWtzKi9qYvN4NT3FV3GZ7no1dheVMDhA
0uzSXbI6xr8L8SbV//ElOwZV6fdkEADEoWdAaW+mgHZ5BpT3QWJiq632Rbfj3nrU4UKegfWUzR3f
9VpYVsHiUJjN2WPgtUtSPgsuzgB7ZfHlwt9Jr4tilWPMFI8wMdehHtTAaFeIl2CltghggduHbQ6r
slgnEK44rDXdOC5y6C99HFTjMv12XDhx7O+jTI6HGAW6F1R2lpEjIJPJXf4KjMcRFBgCV6u6akay
DtLwklX42brBHJ90z8KKh6qBucrvwz6Fj9jDyk6TiT1d8kdg6/4tBLwfDGyrNuljvUiqFSZT3sFc
9xRV7Yfx/v84ng6c0TV7u7gOsHfVf1Z9lLk06OEALxRwyYSKE5Nn8kdCF7/+Vv2T/XP2roD/L17N
YAkh+f0FPL3ikDsquP8d7rZ4l73/o0G9Yu9iBC/4IP6eRx3lMNAxDivbXEB3cp9Nhi1h6ElzOMru
v4eqizoa3jG5xzpUvYFz3hTZCosAfK2aonT7J/ZbNbvVA+gqXO13ejpLQv0m4ujyRynnoPLXrADP
/W4EcJQ0k0ao3zjAz7qiEDz4mmaIBYK95MORrc3N6J7N6MUit6s3b39wkMNkq+Cyrd9lwJRbPONF
DeRx9NEvLvInSCHYR2VflyQl3laS1ZvJdPyaNyUwhMCFffqhveRNSbyBqxAOQwWZdpe/6SSKoVut
cE3kmBdVVbTP0n21MAG3WN6+m69SXaoi88YKdghSibNCDS3rQPAquCLTAZ9Y86E3ew41r0/Ax+7c
9efQ1SeTy5G9EtNSJrerNwS1PULVSSAECBVMGnF8P6dgLnrjyTce/wexRhN8cdEcGb6xwofk5BY2
eC/TelEPcCGcThhV4bfD98n022tyeE2+TyfT+bdXdMHg0XzMv+OnpsPDAQnw8G1umAfz+X2uMXYZ
GGW30I4g6qI8rYowix6S7JT8NaR0jMrYGJXzUQ2jWDqKZXxyT6EoMenDDQ2/cNd84R6d+fjFpT7c
QfGLz+0XTZncM8QLZfAeDQyeKo6UOeKCRkDhFyRxD0UvM71oI8ICZb9wbhd1PSvKvEaUSRS9o3ox
uKXgZ2A+mQ85ps1wPTmjRhKuMpRZUbhzc5BFi7lvZQJhZTxlKC6sTvU3Cgvg+925sV3Lcu0mdSTD
5cyu4fJWxFXNypRKI+2hDDMyvmtllZWlVhmEpjYeSfoedid6BnvNp7RowRs0urX5qrSOyZ2PLUnY
lezKwm+spa51E7MsCitqOdmzUHLrK69Z0npKBY2XISjAI5O7AC1rlrOW8mDWc4PBC9Z5VmjffMQT
9eWMaxH32K9WF21N1y9bliik346gmfYzsLFLmVHmujZ2mA+EyZKZLSGWMj6TF2bhJr5sxAUza5/A
eFviuSupw5KKAN/doBZpYxw86lvPtGp8kILzpr6OHOx4rhHTJ9YeuTKmeVYlnAgMiUs8cWXSgcKp
Ghu5VS7FzEZ5s5rOiY+slxOCHUWXawmtJ/H5tC6dVCR9ow+/nZIOp6TvfdLXEIsLtDhdUvscuLSV
W7w2pNUuw7eIOE32ATiuhI9ZtO4Tu5cjmlX1eUUc73dRHg9sQq1Y2B+KTJc3IZRrz0IGHvhDmWID
FUKaUuDimX+FqkhWxCGU3JvqpnxIOpTTwzWGOjXnArXDFCx1KqmLG/MkMwXBUUKxQEvicSsl7KKe
rqs90ctMVzfqB6b4KQnBoQPZ92WTFgqle0J3uqr5wjcy0pVN/PKgSUPJT4RuGL7MYBDcUkiKcN9T
ukKQr3B6RM+NnwB6YypfEJj0UFgntH7aVl8e0FOjMAGUEaIOldAUdCp4QjXVTOIxDIUg+D2Td3i3
bjORNTHtcQFJciQEhU5Q26R8ZRdyFZPNQv6pjMSx3tdJ7KiAGt8x2lR1uImcGgcVzpcuNcYp4Zt1
RNAUPaiJx+tgaRO+ME3NE8zsjHq+1+zHFJSe0MfJDb0EsOIeOkOA83Em1UFwcjQ39AoWkC5ABXcV
ljXhnYMuAcSCAA3xBZ6OZONQrK2SS5MmXHGTJVRAuxa2+LHW5msQWYL2a5NbaDPHXqACT5/CiCFv
AcoEgDhkHsY7DcahWLAD4JoK6XmB9jCck/KMJUFwagkD7wWMYSgxiZkoOcPTFqeWsCtMMvSb52oo
9c9AsQsEyrZ4Ryi40Sttia3IlPbrgLWEgyVSUUxPqBOA5gr9zkd8wtGSQADbB/cCVARyHIqdRTFu
5x1fUmo6K/WY8Q42GXFsiodOES6a4lFsnUqAQRTO6MQU7wq3SiVWBm2EwEgcg0KvgtSG7DRl0fcD
e1KUUW4OCDrZiVvEJYpxH1wqAjSJGrdDFJwYI670EsiXbqAHBV+NY6EJUocxZWYAye3w2ZYeSDZ1
lNSQa2yJrwu4iyHPlK97vH8mg9g1rsCFxDpDAcVYcC4x2Vs0XCdBQBm6MfDPYPuduN+5epTea7YB
EK6xupeaixM0yih7iZ9u28ba8c3NdrIkSzMCmwGfTG/zOilz/Rocbt1f8K8EKvK3IgOcffAc5vhO
QKJ8RXwHtut408kNudGTl2v//1k9H8lHPbNQa9XP6rkjd3q48rW2n7fnMsPf2GKbxAlNUO+nNd2T
eywyTA+WHvtpPTZu1gkcp/316XCYC+mLXPYilw+4mtFelekLvIHcAKf/YEHPdtCyYSzDhoppSGG4
wjL+54YuWrpn6UGf7krHH+CZxbtHeEt3lcMtXQzo0qGWLgn+/t5r9fgDOhwU4aGQQtvU6PKOeW7g
BAM5atcJHDmQoa1dDZ5butE03KMgOFD2lKkhI9AW+EfW0VOm27rZSnKr0m/9RgeMniOChmGUGest
05iup15keO22jK9vumPAu3krwrVIu2OuGi+Zo+70teaZmDEMuymPNZuCoQWmLT072dUElv2OcdVj
eMhA7DGnh18eK2rxywEe5UfIQAJNyyY2PUcPCgdL1/OSPU/fmAPQcUYj8bbH4H2JPkMYS6+HHIgm
xHNiRIxJUFBwsDtYuh6crB5q9JgNjDGsxNU5iT7DOBuUDDjS4Yj3iNGliUzCaSptkqbrCUqjhaOH
ULPnY4ZZ2Upc9Rh+X+LqWAKVDDhQWREviNHVHJxnTdJ0PUm1WS0bZ4wzrMTVOYkTBioZcMzBwWhj
dBmTWi8ZOg5UjR63c8YxQy/QSFz1GF5fos/Q7kMlA449OIF/vYTj01FWNYzrk3QD7DGnh3/bw4sB
/u0w3UB+hNxvhg9FvjrbC0eZrM8c9rMBC2apOsrjpE/r2hrWJx9tgtubvg4cJk2bo3A/4x1JWJLs
SMySlCVBhZRWV4/kGRQTHYk3/QevgB2ZGqTnG5Iu32ZZyWSPRi1N9WhBU15xjO7RucE2tLa4B6xt
Yke2tK3jSGFT1fQGA/z1qCmNtn4HyiBsbe4el+1jU1xhKcqMfFc+lTQIWwHNIzNJDQKusindFrcG
YeuTeeQm5VCAW4G29DQIWz3Mo84hsyWvrWO2MDQIm9vmUce+FhDK7qFN2wZhM08/dilnXNKmU/f4
tn3sp8RmNOyvX+TevMi9HHCHOTPkNUkTXt+M02/O4Yd0M0VeA9oEHiSDnUYCvPr5En/LJPTrXCqU
Q5t4usOo9PGVB7gF5gUX/gsCXWWo9B2/CTSdu4ihBig9g/HhuYk+yEkWCk80OB9xTBocQ5w5IdBF
Q1+0uABxwjU4r8Fd4x5Y6HutbQJt8/WvVODe7fDmTGHdvj4VaJz+DQ2VrqP6fyELt71wVaT454Yw
wsnFZ7j9BEy6+hdfAf7F0X8BVvtMNzwvAAA=
;
  
  
   gzip+base64
   27  aiida/nodes/09/3c/bbf4-9880-4989-b9b2-5416cded56bb/path/aiida.err
   d41d8cd98f00b204e9800998ecf8427e
   da39a3ee5e6b4b0d3255bfef95601890afd80709
   ?
   ?
   ''
   .
   28
  
  'aiida/nodes/09/3c/bbf4-9880-4989-b9b2-5416cded56bb/path/_scheduler-stdout.txt'
   d41d8cd98f00b204e9800998ecf8427e
   da39a3ee5e6b4b0d3255bfef95601890afd80709
   ?
   ?
   ''
   .
   29
  
  'aiida/nodes/09/3c/bbf4-9880-4989-b9b2-5416cded56bb/path/_scheduler-stderr.txt'
   d41d8cd98f00b204e9800998ecf8427e
   da39a3ee5e6b4b0d3255bfef95601890afd80709
   ?
   ?
   ''
   .
   30  aiida/nodes/09/3c/bbf4-9880-4989-b9b2-5416cded56bb/path/aiida.out
   cea462a356b150d9c6f5468fbab725c1
   290b23a67fb98d4f1a08006fab29ec89719e2a08
   ?
   ?
  
;H4sICMYnf1QC/3RtcDNnbTVjYQCdWltz2ziyftevwJvkmpgmAAIgZi+nfEnK3p3YriSztbUzsyxa
oi2epUgtSSVRHvLbtxsASVCi/JA8WGL3141Go2+gskrbNKGh+TcrqmqbzJLt7qlI0l27ruqkTDfZ
bP64TkvyCf6s35CPwXw2f5/WddW+IX/Dhw9Zme5Weeke36d5U5VltvucvSH/AIpV2GTLNq/KpM3b
Ipv9afbb7Xf+/X5xffudfT/7Lr7f4/MfwWXxCISH7/H32zckJVWZna/yTVY2IJsWJC12m7ystuuq
2a7TFhUl/1/tauAledPsMnL8Tw8Q3E7yvCuKA8j8ctmm5LreN21aFNVLnW7X+TKF3VqryfV8ULJN
X0BJXjftWAkNFT9AFekhCFGRj9pmdbKq8iNUQAF58TGkYcxUaI4oFpwNop8r8MXEfoUcMPssrSc8
Qhged7JcZxvYZZE8V/VmV6TJpsqzdj94ZXEtyC2V5J6Rs98ui9tHRh5i8sd8QrTZbUYONZKKXBYo
DEKPbErqS5a/rAcPccYCCj5stukyS17qardN7j4l5W7zlPn7oODBZr/ZZG29T5ZZgdHVtnn54mE2
VVkti7zMlx7WV2xi4TbFWJifPxK2L+evIs/f474eCSWMXpSEAhrDvk2WdZaa0AbJdbXybPh4+/aX
f/5yrtXMWpmWL0WWpAWE7lGQhoE5kgH2lLXpcSyLgEYqXNDwbAR+STebV3V2Ht+Vedsk//JhkYMU
WfnSrpN0Il5UEKuYL9jZGPo0AYXIjWSsfRMdejmFlkEo43ARddhNlja7OoOMb5M6ey7KJtk1mXGq
CEM1gWqzDeRQ2sKzCW0tBztHuDU4NNmkX10K6CDmp2F56WAB5pxBnUo43AanOoA9C1y42mx3GIxW
CjaRl0Z1FxTvLz988mErrMHLqihcrXEZZHBk8TFH4eYNoVrL9Gx+JFlnq50vCJIYdp9+0fJA+mks
valgRYiJOnH1rjHSN3eX7x/ub8jiKqtfsnpdPT9b8bE0FnXIZRv4UInrHMozcUv7wKatwT5w78gV
1shfNAcb11mxqvPlf8wyfLzMIN2A+7ttWumPsTyUDlF6lT8/12WSbp7yiQAZQsTh/NNfZZ/zZdY7
0nrPHhkx8HTZVpDnWT2flB+VgPnvX0izTMtmwNbpKnc+w/q0rivwXQW1zR4BNLRjZAPFfDnE3Ryd
eP5cLXcNabK0gORod0/Z1BrtfuvH6/vq77+nE7Av6efM5qiBBcp2sg5nszD9nHxIsv/u8s+wZNlC
rAQhj6dgTf6ySe8uyqy9M+pC07bGsCLfQOVcD+kIdeMkpstFcn4K9B9fET+J8RRF06DCU6RPQgY9
jB6CjpoViTU/UnVQjIZ6NAnr1+vqUfZ120Lpf2qqegsNqMqen/OlCfbNzvg8YvoYVdduBvtkVw60
il9H4cJBHEWvoFyMNdDZzyHR8hob/CF+W1fLrGkgvdo0LxqTW5c3l1cfD/PXFBkru7TTGFZGSADf
oUipC9B3CF3hnNjunRNNMAQSj2gahonrcqqsWuLyeDU/xjfLOt96NXab1jA4QNJs8222OsS/S2C8
GvUHqdghqMm/ZaMAIAE9Acq9mQLa5QlQ6YPEzFVb44thx956NOBCnYB5ys4DGUY9rGhgcSjM9uwx
8PolKV/EZyeAXll8vfAP0i9VtSoxZqpnGLbbxAxqYHQoxGuw2lgEsDj0Yev9qq5eMghXHNa6brys
SugvPg6qcZ1/PSyceGPwUTbHE4wC0wsaN8uoCZDN5CF/BcbjBAoMSXNTV+1INkA6XrZKPjo32ONT
4UlY9dR0sFBLH/YhecYeVg+abOyZkj8Be/EvMOD9eGRbs86f24usWWEylQMsDI9RzW4c73/G8XTk
jKHZu8VNgL1r/rvyUfbSYIYDvFDA/RQqzpJ8IX8h9OK335t/s38v3lXw9+ynBSwhFH88g6efOOSO
jh//IF/WGYwCj3+xqJ/YuyWCL/go/r5MOipgoGMaVve5gO7kks3GLWHsSXs42u3fQ7VVm46vpzxi
A6pdwzmvq2KFRQC+Nl1Ruvsr+71Z3EEG/lZU4JA/wHkrOyHaAQLSozBB/dJQiIlgmT+PsUBw1344
iRd74XlkC3p2Uc6sst3WjHxZAvlT7w9ulJRyTh0w21ZQSMwBbjDZGrinf1pn5Bmm3OoLXtRgIRx9
8iUm4WdIIdhHQ77gwcCwhreVbPXzbD59zZsTGELgrj9/31/y5mS5hqsQDkMVmQ+Xv/ksXUK3WuGa
yLlYw/h20aS7It81FzbgLq7v3p2vclOq0jrPmgt0BUhlwQo19Kw9wavgisxHfOLMh94cBZQ8w0yH
7gjPQ3kOXX02u5zYK7EtZXa3+pmgtmeoOhmEAKGCKStOGYjDXPRzpH6O+L+IM5rgO4/ubJ/SJsOH
7OgWNnql03vRDHAJnE6SNsnX/bfZ/Osbsn9Dvs1n8/OvP9ELBo/24/wbfho6POyRAA9fzy1zbz+/
nRuMWwZG2Q20IwiQtMybKinSp6w4Jv+aUDpFZWyKyvmkhkksncQyPnukUJSYknBDwy88tF94RBcS
v4RUwh0Uv0juvhjK7JEhXmiLj2hs8VRzpJwjLu4ENH5BEo9Q9LIwi3YiLNbuC+du0TByoizqRJlC
0QdqFoNbCn7G9pNJSEZjRhipBbWScJWhzInCnZuDLFrMpZOJhZOJtKWEsDo13ygsAAJ2E9rKcuMm
fSDD1cKtEfJeJNTdypQqKx2hDLMyMnSy2slSpwxC0xiPJHMPexCewVH3qRxa8A6Nbu2+aqNj9iCx
JQm3kltZyM5aGjo3MceisKKRU56FijtfRd2SzlM67rwMQQEemT3EaFm3nLOUxwvPDRYv2OBZYXxz
jycq1YIbkfDQr04X7U03L1uuUci8HUEz3WfsYpcyqywMXewwCYTZNbNbQixlfKHO7MJdfLmIixfO
PoHxdo3nrpUJSypifHeDWpSLcfCodJ7p1UiQgvOm0kQOdrzQipkT649cW9MipxJOBIbEazxxbdOB
wqlaG7lTrsTCRXm3msmJe+blhGAH0RU6Qu9JfD6uS0cVydzok6/HpP0x6ZtP+jXB4gItzpRUnwOX
tnqD14a82Rb4FhGnSR+A40ryXKQvPnF4OWJYjc+rlsvdNi2XI5tQKxb2p6ow5U0IHbqzUHEE/tC2
2ECFULYUhHjmv0JVJCsSEEoebXXTEpIO5cxwjaFO7blA7bAFSx9LmuLGIsVsQQi00Cw2knjcWgu3
aGTqqid6WZjqRmVsi59WEBwmkKVUXVpolPaEHkxVk0JaGRWqLn553KWh4kdCtwxfZjAIbiUURbiM
tKkQ5Fc4PWLmxg8AvbWVL45temisE0Y/7asvj+mxUZgA2grRgCpoCiYVIqG7aqbwGMZCEPyRzTu8
W/eZyLqYjriAJDkQgkInqGtSUruFQs1Ut5A8llE41kuTxIGOqfUdo11Vh5vIsXFQ4aQKqTVOC2nX
EXFX9KAmHq6DpU1IYZtaJJjdGY1k1O3HFhRP6H52Sy8BrHmEzhDgfBwfTRAcHc0tvYIFVAhQwUON
ZU1Ep6DXAGJxjIZIgaej2DQUa6viyqYJ19xmCRXQroUrfqy3+QZErkH7jc0ttJljL9BxZE5hwpC3
AGUCQBwyD+OdxtNQLNgxcG2FjKLYeBjOSUfWkjg+toSB92LGMJSYwkxUnOFpi2NL2BUmGfotCg2U
yhNQ7AKxdi0+EBpu9NpY4ioypX4dcJZwsERpiukJdQLQXKPf+YRPOFoSC2BLcC9ARaymodhZNONu
3pGKUttZacSsd7DJiENTInSKCNGUiGLr1AIMonBGR6ZEV7hVqrAyGCMERuIUFHoVpDZkpy2LUsbu
pCij3B4QdLIjt4hLFOMSXCpiNIlat0MUHBkjrswSyFdhbAYFqaex0ARpwJi2M4DibvjsSw8kmz5I
asg1do2vC3iIIc+0ND1ensggdoMrcKGwzlBAMRafSkz2Fg03SRBThm6M5Qms34n9zuVRvNdsIyDc
OE0vtRcnaJRp8Ro/3/SNdeDbK/DsmlzbEdgO+GR+V7ZZXZrX4HDr/pQ+FVlD/lEVgHMPUcACGcQk
LVdEBrDdIJrPbsmtmbxC9/dH9dyTezOzUGfVj+p5IA9muJJG24/bc1ngL7bYJnFCEzT6YU2P5BGL
DDODZcR+WI+Lm5cMjtP9fDoe5hL6Kpe9yuUjrmH0V2X6Cm8kN8KZ/+tgZjto2TCWYUPFNKQwXGEZ
/7+OLnp65OixTw9VIEd45vDhAd7RQx1wRxcjugqooyuCv99HvR45osNBEZ4IJYxNna7okBfGQTyS
o26dOFAjGdrb1eG5o1tN4z0KggOlp0yPGbGxQB5YR4+ZYe9mJ8mdStn7jY4YniPijmGVWesd05pu
pl5kRP22rK9vh2PAu3kvwo1Iv2OuOy/Zox709ebZmLEMt6mIdZuCoQWmLTM7udUElv2BceUxImQg
9pDj4a8PFfX46xEe5SfIQAJN111sRoEZFPaObuYld57SmgPQaUYn8dZjcF/CZwhr6c2YA9GEeE6s
iDUJCgoOdntHN4OT00OtHruBKYaTuDol4TOss0HJiKMCjviIWF2GyBScpjYmGbqZoAxaBGYItXs+
ZNiVncSVx5C+xNWhBCoZcaCyIl4Qq6s7uMiZZOhmkuqzWnXOmGY4iatTEkcMVDLi2IOD0cbqsib1
XrJ0HKg6PeHgjEOGWaCTuPIYkS/hM4z7UMmI4w5O4P9ewvHpIKs6xs1RugH2kOPh33p4McK/Hacb
yE+Q/Wb4VJWrk71wksl85rifjVgwS7Vpucx82tDWsD5JtAlub+Y6sJ91bY7C/YwPJOFIaiAxR9KO
BBVSOV0eKbIoJgYS7/oPXgEHMrXISFqSKd92WcWUR6OOpj1a3JVXHKM9OrfYjtYX95j1TezAlr51
HCjsqprZYIw/j9rS6Op3rC3C1ebh8bp/7IorLEWZlR/Kp1YW4SqgfWQ2qUEg1C6l++LWIVx9so/c
phwKcCfQl54O4aqHfTQ5ZLcU9XXMFYYO4XLbPprYNwJCuz30adshXOaZxyHlrEv6dBoe3/aPfkqs
J8P+5lXu7avcyxF3nDNjXpc0yc3tNP32FH5Mt1PkDaBt4EEyuGkkxqufVPgrkzCvc6nQAe3i6QGj
UuIrD3ALzAsh/IljU2WokoHsAs3kLmKoBarIYiQ8d9EHOckSEYkOJxHHlMUxxNkTAl00kaLHxYgT
ocVFHe4G98ASGfW2CbRNmp9U4N4d8O5MYV1fn44NzvxCQ1UY6Nn/AKTzW/2uLAAA
;
  
  
   gzip+base64
   31  aiida/nodes/87/e7/b703-837e-4e80-b7eb-cfcf81148e9e/path/aiida.out
   cea462a356b150d9c6f5468fbab725c1
   290b23a67fb98d4f1a08006fab29ec89719e2a08
   ?
   ?
  
;H4sICMYnf1QC/3RtcGIzZmJSSACdWltz2ziyftevwJvkmpgmAAIgZi+nfEnK3p3YriSztbUzsyxa
oi2epUgtSSVRHvLbtxsASVCi/JA8WGL3141Go2+gskrbNKGh+TcrqmqbzJLt7qlI0l27ruqkTDfZ
bP64TkvyCf6s35CPwXw2f5/WddW+IX/Dhw9Zme5Weeke36d5U5VltvucvSH/AIpV2GTLNq/KpM3b
Ipv9afbb7Xf+/X5xffudfT/7Lr7f4/MfwWXxCISH7/H32zckJVWZna/yTVY2IJsWJC12m7ystuuq
2a7TFhUl/1/tauAledPsMnL8Tw8Q3E7yvCuKA8j8ctmm5LreN21aFNVLnW7X+TKF3VqryfV8ULJN
X0BJXjftWAkNFT9AFekhCFGRj9pmdbKq8iNUQAF58TGkYcxUaI4oFpwNop8r8MXEfoUcMPssrSc8
Qhged7JcZxvYZZE8V/VmV6TJpsqzdj94ZXEtyC2V5J6Rs98ui9tHRh5i8sd8QrTZbUYONZKKXBYo
DEKPbErqS5a/rAcPccYCCj5stukyS17qardN7j4l5W7zlPn7oODBZr/ZZG29T5ZZgdHVtnn54mE2
VVkti7zMlx7WV2xi4TbFWJifPxK2L+evIs/f474eCSWMXpSEAhrDvk2WdZaa0AbJdbXybPh4+/aX
f/5yrtXMWpmWL0WWpAWE7lGQhoE5kgH2lLXpcSyLgEYqXNDwbAR+STebV3V2Ht+Vedsk//JhkYMU
WfnSrpN0Il5UEKuYL9jZGPo0AYXIjWSsfRMdejmFlkEo43ARddhNlja7OoOMb5M6ey7KJtk1mXGq
CEM1gWqzDeRQ2sKzCW0tBztHuDU4NNmkX10K6CDmp2F56WAB5pxBnUo43AanOoA9C1y42mx3GIxW
CjaRl0Z1FxTvLz988mErrMHLqihcrXEZZHBk8TFH4eYNoVrL9Gx+JFlnq50vCJIYdp9+0fJA+mks
valgRYiJOnH1rjHSN3eX7x/ub8jiKqtfsnpdPT9b8bE0FnXIZRv4UInrHMozcUv7wKatwT5w78gV
1shfNAcb11mxqvPlf8wyfLzMIN2A+7ttWumPsTyUDlF6lT8/12WSbp7yiQAZQsTh/NNfZZ/zZdY7
0nrPHhkx8HTZVpDnWT2flB+VgPnvX0izTMtmwNbpKnc+w/q0rivwXQW1zR4BNLRjZAPFfDnE3Ryd
eP5cLXcNabK0gORod0/Z1BrtfuvH6/vq77+nE7Av6efM5qiBBcp2sg5nszD9nHxIsv/u8s+wZNlC
rAQhj6dgTf6ySe8uyqy9M+pC07bGsCLfQOVcD+kIdeMkpstFcn4K9B9fET+J8RRF06DCU6RPQgY9
jB6CjpoViTU/UnVQjIZ6NAnr1+vqUfZ120Lpf2qqegsNqMqen/OlCfbNzvg8YvoYVdduBvtkVw60
il9H4cJBHEWvoFyMNdDZzyHR8hob/CF+W1fLrGkgvdo0LxqTW5c3l1cfD/PXFBkru7TTGFZGSADf
oUipC9B3CF3hnNjunRNNMAQSj2gahonrcqqsWuLyeDU/xjfLOt96NXab1jA4QNJs8222OsS/S2C8
GvUHqdghqMm/ZaMAIAE9Acq9mQLa5QlQ6YPEzFVb44thx956NOBCnYB5ys4DGUY9rGhgcSjM9uwx
8PolKV/EZyeAXll8vfAP0i9VtSoxZqpnGLbbxAxqYHQoxGuw2lgEsDj0Yev9qq5eMghXHNa6brys
SugvPg6qcZ1/PSyceGPwUTbHE4wC0wsaN8uoCZDN5CF/BcbjBAoMSXNTV+1INkA6XrZKPjo32ONT
4UlY9dR0sFBLH/YhecYeVg+abOyZkj8Be/EvMOD9eGRbs86f24usWWEylQMsDI9RzW4c73/G8XTk
jKHZu8VNgL1r/rvyUfbSYIYDvFDA/RQqzpJ8IX8h9OK335t/s38v3lXw9+ynBSwhFH88g6efOOSO
jh//IF/WGYwCj3+xqJ/YuyWCL/go/r5MOipgoGMaVve5gO7kks3GLWHsSXs42u3fQ7VVm46vpzxi
A6pdwzmvq2KFRQC+Nl1Ruvsr+71Z3EEG/lZU4JA/wHkrOyHaAQLSozBB/dJQiIlgmT+PsUBw1344
iRd74XlkC3p2Uc6sst3WjHxZAvlT7w9ulJRyTh0w21ZQSMwBbjDZGrinf1pn5Bmm3OoLXtRgIRx9
8iUm4WdIIdhHQ77gwcCwhreVbPXzbD59zZsTGELgrj9/31/y5mS5hqsQDkMVmQ+Xv/ksXUK3WuGa
yLlYw/h20aS7It81FzbgLq7v3p2vclOq0jrPmgt0BUhlwQo19Kw9wavgisxHfOLMh94cBZQ8w0yH
7gjPQ3kOXX02u5zYK7EtZXa3+pmgtmeoOhmEAKGCKStOGYjDXPRzpH6O+L+IM5rgO4/ubJ/SJsOH
7OgWNnql03vRDHAJnE6SNsnX/bfZ/Osbsn9Dvs1n8/OvP9ELBo/24/wbfho6POyRAA9fzy1zbz+/
nRuMWwZG2Q20IwiQtMybKinSp6w4Jv+aUDpFZWyKyvmkhkksncQyPnukUJSYknBDwy88tF94RBcS
v4RUwh0Uv0juvhjK7JEhXmiLj2hs8VRzpJwjLu4ENH5BEo9Q9LIwi3YiLNbuC+du0TByoizqRJlC
0QdqFoNbCn7G9pNJSEZjRhipBbWScJWhzInCnZuDLFrMpZOJhZOJtKWEsDo13ygsAAJ2E9rKcuMm
fSDD1cKtEfJeJNTdypQqKx2hDLMyMnSy2slSpwxC0xiPJHMPexCewVH3qRxa8A6Nbu2+aqNj9iCx
JQm3kltZyM5aGjo3MceisKKRU56FijtfRd2SzlM67rwMQQEemT3EaFm3nLOUxwvPDRYv2OBZYXxz
jycq1YIbkfDQr04X7U03L1uuUci8HUEz3WfsYpcyqywMXewwCYTZNbNbQixlfKHO7MJdfLmIixfO
PoHxdo3nrpUJSypifHeDWpSLcfCodJ7p1UiQgvOm0kQOdrzQipkT649cW9MipxJOBIbEazxxbdOB
wqlaG7lTrsTCRXm3msmJe+blhGAH0RU6Qu9JfD6uS0cVydzok6/HpP0x6ZtP+jXB4gItzpRUnwOX
tnqD14a82Rb4FhGnSR+A40ryXKQvPnF4OWJYjc+rlsvdNi2XI5tQKxb2p6ow5U0IHbqzUHEE/tC2
2ECFULYUhHjmv0JVJCsSEEoebXXTEpIO5cxwjaFO7blA7bAFSx9LmuLGIsVsQQi00Cw2knjcWgu3
aGTqqid6WZjqRmVsi59WEBwmkKVUXVpolPaEHkxVk0JaGRWqLn553KWh4kdCtwxfZjAIbiUURbiM
tKkQ5Fc4PWLmxg8AvbWVL45temisE0Y/7asvj+mxUZgA2grRgCpoCiYVIqG7aqbwGMZCEPyRzTu8
W/eZyLqYjriAJDkQgkInqGtSUruFQs1Ut5A8llE41kuTxIGOqfUdo11Vh5vIsXFQ4aQKqTVOC2nX
EXFX9KAmHq6DpU1IYZtaJJjdGY1k1O3HFhRP6H52Sy8BrHmEzhDgfBwfTRAcHc0tvYIFVAhQwUON
ZU1Ep6DXAGJxjIZIgaej2DQUa6viyqYJ19xmCRXQroUrfqy3+QZErkH7jc0ttJljL9BxZE5hwpC3
AGUCQBwyD+OdxtNQLNgxcG2FjKLYeBjOSUfWkjg+toSB92LGMJSYwkxUnOFpi2NL2BUmGfotCg2U
yhNQ7AKxdi0+EBpu9NpY4ioypX4dcJZwsERpiukJdQLQXKPf+YRPOFoSC2BLcC9ARaymodhZNONu
3pGKUttZacSsd7DJiENTInSKCNGUiGLr1AIMonBGR6ZEV7hVqrAyGCMERuIUFHoVpDZkpy2LUsbu
pCij3B4QdLIjt4hLFOMSXCpiNIlat0MUHBkjrswSyFdhbAYFqaex0ARpwJi2M4DibvjsSw8kmz5I
asg1do2vC3iIIc+0ND1ensggdoMrcKGwzlBAMRafSkz2Fg03SRBThm6M5Qms34n9zuVRvNdsIyDc
OE0vtRcnaJRp8Ro/3/SNdeDbK/DsmlzbEdgO+GR+V7ZZXZrX4HDr/pQ+FVlD/lEVgHMPUcACGcQk
LVdEBrDdIJrPbsmtmbxC9/dH9dyTezOzUGfVj+p5IA9muJJG24/bc1ngL7bYJnFCEzT6YU2P5BGL
DDODZcR+WI+Lm5cMjtP9fDoe5hL6Kpe9yuUjrmH0V2X6Cm8kN8KZ/+tgZjto2TCWYUPFNKQwXGEZ
/7+OLnp65OixTw9VIEd45vDhAd7RQx1wRxcjugqooyuCv99HvR45osNBEZ4IJYxNna7okBfGQTyS
o26dOFAjGdrb1eG5o1tN4z0KggOlp0yPGbGxQB5YR4+ZYe9mJ8mdStn7jY4YniPijmGVWesd05pu
pl5kRP22rK9vh2PAu3kvwo1Iv2OuOy/Zox709ebZmLEMt6mIdZuCoQWmLTM7udUElv2BceUxImQg
9pDj4a8PFfX46xEe5SfIQAJN111sRoEZFPaObuYld57SmgPQaUYn8dZjcF/CZwhr6c2YA9GEeE6s
iDUJCgoOdntHN4OT00OtHruBKYaTuDol4TOss0HJiKMCjviIWF2GyBScpjYmGbqZoAxaBGYItXs+
ZNiVncSVx5C+xNWhBCoZcaCyIl4Qq6s7uMiZZOhmkuqzWnXOmGY4iatTEkcMVDLi2IOD0cbqsib1
XrJ0HKg6PeHgjEOGWaCTuPIYkS/hM4z7UMmI4w5O4P9ewvHpIKs6xs1RugH2kOPh33p4McK/Hacb
yE+Q/Wb4VJWrk71wksl85rifjVgwS7Vpucx82tDWsD5JtAlub+Y6sJ91bY7C/YwPJOFIaiAxR9KO
BBVSOV0eKbIoJgYS7/oPXgEHMrXISFqSKd92WcWUR6OOpj1a3JVXHKM9OrfYjtYX95j1TezAlr51
HCjsqprZYIw/j9rS6Op3rC3C1ebh8bp/7IorLEWZlR/Kp1YW4SqgfWQ2qUEg1C6l++LWIVx9so/c
phwKcCfQl54O4aqHfTQ5ZLcU9XXMFYYO4XLbPprYNwJCuz30adshXOaZxyHlrEv6dBoe3/aPfkqs
J8P+5lXu7avcyxF3nDNjXpc0yc3tNP32FH5Mt1PkDaBt4EEyuGkkxqufVPgrkzCvc6nQAe3i6QGj
UuIrD3ALzAsh/IljU2WokoHsAs3kLmKoBarIYiQ8d9EHOckSEYkOJxHHlMUxxNkTAl00kaLHxYgT
ocVFHe4G98ASGfW2CbRNmp9U4N4d8O5MYV1fn44NzvxCQ1UY6Nn/AKTzW/2uLAAA
;
  
  
   gzip+base64
   32  aiida/nodes/67/49/e87e-41c4-41a3-846f-fb3e8f9bb77b/path/aiida.err
   88f653e4d2ef22250ee8fb97d3bc975e
   306789372176a802e27e8f1ef7aafd4da36ad524
   ?
   ?
  
;split/1000000_molecule_0.cif
split/1000000_molecule_1.cif

;
   
   .
   33
  
  'aiida/nodes/67/49/e87e-41c4-41a3-846f-fb3e8f9bb77b/path/split/1000000_molecule_1.cif'
   b8e0558daccbe1945c0bac425e832e3d
   0b1aaa29181dc0c21c1cf20311e89d95c0e0aee6
   ?
   ?
  
;H4sICMYnf1QC/3RtcHlYOTBBTwCFl0tv2zgQx+/+FLzZBRxBJPVi95Q6Bby7aBp0H4d2C4KWaVtb
SvLqkcY5+LPv8GFbjmXZgQKa/M1oODP8M1mKRnDsmw/PSyXTVkmOR6ost3zEt+1CcdE2m7Lihcjl
aPy0EQX6E35tpugPbzwafxJVVTZT9Jv+8kUWol1mhfv6SWR1WRSyfZZT9DfMWIe1TJusLHiTNUqO
fhl9m+/p/nEym+/J/t0+3D/q79+9e/UEE5/3yX4+RQKVhbxbZrksarAVCgnV5llRbjdlvd2IRjvi
/5ZtBWs8q+tWossPOyF6O3zVKvUGGd+njUCzalc3QqlyXYntJksF7NZGjWbjk5OtWIOTrKqbcyfY
j+kbSom3kKaCE/VcwoZ6gg6jE7OTourZFiJQvhFPpVJcyWLdbLjooWIviRM6Ie/O0UUPin0viBLm
T7D/hk776Mjzo8SfBAdWFGtoI6GgMBcl8L1jrBZbyOYyWhZ6OIi777fwWuT5oM9cirqtJPRJwxuZ
b2UlGvhussQis/lltlpVBRf5IuuhLrhKLDNhGjYvizLdVGUumhLqYHsDOu+SrKFg6amY41UG3bsq
07ZGtRRKLlHTLuS4x7LZbbtN8Kn8/R/Rg/0Uz9JWxGBebFvuwMmVKmrebCC1PBcvp0ZhXnKBqSzP
Gr7pgNi/ymSFY+6uQT+6juhVpuMo6IdUxxG7ipz8EAw9UC75st0qOLKN5FDeavfmpGBMqQPrKuXp
RuYAK74qq7xVkK4yk80OjSezEM1xhB4JevftXs2fCPqcoO/jAdO6zU21jWWM7pU2BqMn0rGC+KEZ
uKr5F74SKXQSHBRQIc9WcABbawHx/DAJ+rCfZ+484kdsGIM5eCmNyIhr0W54WknX5xIUfzka/7p8
j9JsdbwYoH2or1MY3GF851Pks/eEvg+ir0gUyypra73PK1k5noVjXl1SlvoOsgcGtFSdSeDdJbJQ
ZfrjTKrMxx3/w0vbImtq/vVMpUa83uWwt2rH660AV+uqbLf2JpjffdKxPSE8tpcfOsHyvzZ75tuy
5qLmL7tXNH6Zot0UvY4P9yToQc5rkAKQ+YVU3Ql9nrWrRXk2vaqgCPzlcmp3OfXanfoLLreSQ/lM
VN2VMk3brSjSMw+28EYNV0qs6+4aFCk1s6MZRjPkezGN4SaBAWU0MgMc4gQGnh/HIIkIowe0HM2I
oZPIrMFNESR2QDALDJ0kHZpamvnUQCHD1NFxqGmM/Qk90oGhGaE2kiiGZRNJQEwkOKST8EA/YvSo
XUahdRmEJHR0ZCMJaKLvEOA94Of4Hs01x2hgDXxnqVXBGEQRsF+Qzg3gHwwexr7FAWYWJ2HQg88s
Tlw+AgjM4swk9i3+YPA4AVc2GGrtfJZY74x08Y8WJ6GlqE/sAEeuSGc4sVtNiEtJQGKbSRKb3ILe
hF3cbpXFboeBf8Bx1INT6z1m2NWJMLsJQpmtKu0GQ533JLTBRNBQFg+T+BIPXOyh77wHrgt87Vzj
SdDFrfeEYes0tk51+5o6n+OzkGMehSE0GoZdufREkSsaJth2AmOntnwkzuYRbMhhrzF1JwDHjLp2
YxN27DYyc1ZzsIL+snuI4e8LF10SXXYFeegYERranUQMWyNCkp5GJR87Rti2DyQEE5eHJOoxCu+7
RjRy5zNxSceHwuOka/Sha+RHlo39xBUoitiFkVNJreTH/zGMDDm1vFwoq2x9ffWgzFfW4GXZ8voa
KHjfYlOJolZXLN3iy8DabmCt94VwTzXX5uEvPbiJjS5jhHkY6rP3Mt1NX5Ee++YHetpoMRkmQH/p
MAGaGwwSWmeH4zDKCs8wA+cUnmEGNBSeYQaEE55hBtQSnkFGSyS5EbPWRXIjZi2G9IYfrYD0hh8t
e8ENP1rrgmE/J4EDwgwOnB0fq3oUNTLIdXSMzG6QR/EiDzfIo2KRj8PkSabC+xvkUZvCD4Pk/6HG
KQn3EAAA
;
  
  
   gzip+base64
   34
  
  'aiida/nodes/67/49/e87e-41c4-41a3-846f-fb3e8f9bb77b/path/split/1000000_molecule_0.cif'
   4b9ad507dae17eb838f111ac6bbcba3b
   e8b03f22db2c3a64252563bc8c0632cb9ffe9d44
   ?
   ?
  
;H4sICMYnf1QC/3RtcDdjZTZkdgCVm8tu48gVhvd+Cu7sBmyBdS9OVo3eOAl62phcFjMZELRM28pQ
kqNLj9ULP3vqwjpVpC0WTycYFKX/o0ieC8Wj3w/NoalJ6f7V623XLo9dW5cX3Xb7Ul/UL8f7rm6O
h+ftrt406/bi8u652RT/NP95vi7+sbi8uPza7Hbbw3XxN7vxS7tpjg+rTb/5tVntt5tNe/zeXhf/
Nq/4He7b5WG13dSH1aFrL/5y8dvtG3v7+erL7Rt9+/Qm3n62278vPnd35oVvb/rt9rpoiu2mvXlY
rdvN3rBNVzTdcb3abF+et/uX5+Zgd1T/d3vcmffq1X5/bIv3/6oosadTPx67biS5/Lw8NMWX3Wl/
aLpu+7RrXp5Xy8acrT/q4stl3MlL82R2strtD8OdkFKxkaprxiKr4lH1fWtO6IODFjJqTm2z++C0
CmrCd1Ev266ru3bzdHiumw9UaqGVZlf001B6/4GUlAsudVVekXKkXn6klotS6vKKB22zeTJp1HQm
MO9CUC7gWL3svj28P9pKLAhX6ed78VOzXk/uc902++OuNXlyqA/t+qXdNQez7a5SJd3JP6weH3eb
ulnfrz5QvdPtmodV4xJ2vd1sl8+77bo5bE0cfG6YzHuv3JuALWMwLx9XJnsft8vjvti3Tdc+FIfj
fXv5AXk4vaRJ8HX79/80H8j+bL63PiJOtlA+5YKufew2+/rwbC5tvW5eY6JUC/1O1q3Wq0P9nAhJ
eVaz2vSam3OiP9IdsbOaZEf8Y1GX7Kg6K4n7ocTkwPahfji+dKZkD21twrs7jSqFEMZ64X63rJfP
7dqIu/pxu1sfO3O5tqv2cCour76I4pbI4mdafPrtc3d7R4tvuvj9cgLdH9cu2o5UxefOwga6owll
jt8kQ93t61/qx2ZpMskUiulCCx/BCdmTbSCLUmj+kezPwe4WtJTVtMy8Zj6USXpR26Z9qJe7ts/z
1nT8h4vLvz78VCxXj3BjMOnDSnsJ+Q0hNyUryuonyn7i8tei2TzsVse9Pc8zVyU22I5oc3108Y1w
Xtwx2V+cB3sv8oVjemo3aIU37yX33Xb5x6BluX99GwgfftysDvv610G3uqj3p7U5x92p3r80ZldP
u+3xxd8Rbm++2mO8K8ilvwkWUdz+77j6Xr9s93Wzr19PP4rL1+vidF38uAz3S9MX1vXetATT7u/b
Ln3B1rXd1f128PLjzgSjfn3/0un9Sz/Sl/5lbnLb2oTRHVX6zna5PL40m+VgDz4BXFd87Jqnffqe
CdbSvXrxjRTfinJBpOZlaRaVon5RSqnMYlEyVV2pTwUpFsXDxTfp5IIQ6VSyMvnh5BX1ci7llQa5
8nsv3b7M3jXxe6eEV04uKLmqQK6d3IiJU+lK+I8xFSD8wVQ67v2OFHf2YERVVlalzDlQJ6esklZO
zS2KBfktrUlNBC9uixu2oFr5Y1JC2U+7saccDkoa5JfCXiVPUU9RHMU8RXAU91SJo4SjjJZQNhuS
DiI4SDmI4iDtIIaDKgdxDMRqIoUPcE+Zq89p1af0OYh6iKIg5iGCgriHShQkHAQZMYuRjiEoRjmG
ohjtGIZiKsfwucw34gpXmOZg4qpZ33tyrYq4wnUUxVHMUwRHcU+VOEo6iszvwMTVoIUoDtIOYjio
chDHQLYGuY9VTxHTiZUMlXsWox6jSIx5jCAx7rESiQmHQZBnUtJRBEkpR1EkpR3FkFTlKI6gwu3U
RZpx5nNelUr3GNOyx9gIo6KPNA5joo80DuOijzQOE8JHWpqQz6ek8JHGUUr4SOMoLXykcVQlfKQx
lL+vukj3mGnaFaW+E5ynqOz7L4pisu+/KIrLvv+iKOEoyI15kJS+aaMgJX3TRkFa+qaNgirpm/Zs
iKWlXBGifav33/Jtiyy59pgmIwxKGYdBKeMwKGUcFkq51JrOp0Ip46hQyjgqlDKOCqWMoZJS7jF3
hr4VTFBQyigKShlFQSmjqFDKfW7Mg0Ipo6BQyigolDIKCqU8G+K2lEOAddlTRPXP6YSLqn9OV8mD
t6UgwCgKAoyiIMAoKgSYVH1WzIFCgFFQCDAKCgFGQSHACIjFXt1T5jrSUvWFfx6DXo3DoFfjMOjV
OCz06j4zZlKhV+Oo0KtxVOjVOCr06vmUSO/KoqqEx3gZvq1RQT3GRDJzE+ldGYdBpHEYRBqHhUib
foagQqRxVIg0jgqRxlEh0hgquSv3mCk3UfXf2s5T0LRRFDRtFAVNG0WFpt3nxjwoNG0UFJo2CgpN
GwWFpj0bkukEi4dbeG56LtMJFoqCCRaKggkWigoTrNk/CshkgoWCwgQLBYUJFgJKJlg9ZR71ytCt
JzCYYOEwmGDhMJhg4bAwweqDPJMKEywcFSZYOCpMsHBUmGDNp9RgrlwxNutHKjWYK2OoOFfGUHGu
jKFgrjz3tzeVzpUxEMyVMRDMledD6VzZU+ZpiOj+eXcCi3NlFBbnyigszpVRGMyVfZBnUjBXRlEw
V0ZRMFdGUTBXnk3ptCoZrao5vwU7CqoSRUFVoiioShQVqnLuT9wOClWJgkJVoqBQlQgoqcqesgXD
ed94z2NQlTgMqhKHQVXisFCVfZBnUqEqcVSoShwVqhJHhaqcTd2F32Dv3DdYXlZkhuXiLvwGe+e+
wWIo5imCo7inShwlHUVmO0nuwm+wd/YbLAbSDmI4qHIQx0C+Kl2seoqYdisq3T+FnsWoxygSYx4j
SIx7rERiwmEQ5JmUdBRBUspRFElpRzEkVTmKIyjaT3tdpKuSCe5usUJI5kaIjJtitlQ1pqjsqxJF
MdlXJYrisq9KFCUcZb+8Sy7nQlL6UkZBSvpSRkFa+lJGQZX0pYyA/LTXBbinzHXknCk/OjyPUdGX
Mg5joi9lHMZFX8o4TAhfyn1mzKSk8KWMo5TwpYyjtPCljKMq4Ut5NvW5I/2493Pn7GuCKuVAUdHQ
A+y4yYJcXvEhSHuQYkHWgwQL8h4ssaDwoPn+zxVl8znpOYLllOcoltOeY1iu8hzHcX4A7GPfg6YE
ean6G/15jvYcRXKs5wiS4z1XIjnhOciXmZj0GEFiymMUiWmPMSRWeYzPxpy5Hf78arWvX7bdad26
v/U5tftgLx+onH+7t5m/f2O7Wz2dfzdY2s+8Zz5s9XD+vdfTj4/ePOyazb47Q/Zvvk68d5p478MP
XB+7w7nX6539UwZnaCeF7TLCXOrX69P1j8KuS/c/XhDnYZfTClWY/08qtP0rjymFNadPH0f0o9PC
L4LOrm+4kd2QqKRBSROlXd+wkZIFJUuUdn1DR0oelDxR2rURDZUiKEWitOtyJJRBKBOhXw+FKghV
IrTr8UHqINSJ0K7H510FYZUI7Xp4KXuPOC38ghU3r9c3p+sbc93N5o0/UtDSoKVDrd00V36gZUHL
hlq7aa79QMuDlg+1dtMc60ArglYMtXazHEplkMqh1G6O9qqCVA2ldnN0sDpI9VDqNwfSKkirodRu
xksbLd2k8IuY+8LnfiKkQUgToV271E+ELAhZIrRrl/mJkAchT4R27RI/EcoglInQrwc6FXQq0dn1
6IN10OlEZ9ejM6mCrkp0dj24NP3wjRR+MUhl7lO5z/tosCaFXwxymftcTsUsiNlQbDddMqdiHsR8
KLabLptTsQhiMRTbzXKklUErh1q7Od6vClo11NrN8QHroNVDrd8caqugrYZau5leYjBE5/p59EDn
+nm0Pef6eXQ65/p5NDdn+nn0M2f6ebQwZ/p5dC1n+nk0Kmf6efQm5/t5dCTn+3n0Ief7eXQf5/t5
9Bxn+3l0Gmf7efQXZ/t5dBVn+3n0Euf7OTiIWS73wTTMcrkPPmGWy32wBrNc7oMbmGVyHwzALJP7
4PllmdwHmy/L5D44e1km98HMy/K5DxZels99MO6yfO6DXZflcx9Muiyb+2DNZdncB0Muy+Y+2HBZ
NvfBfMuyuQ+WW174BeT+KAbgsrVCmgjHAQBjrRWyRDi++uCltUKeCMeXHuyzVigS4ei6g2PW6mSi
G110MMlanUp0oysOvlir04ludLnBCmt1VaJ7d6179ysv/CJN+XGrAc+rFdOh+F23AaerFbOh+F3D
AX+rFfOh+F3PAVerFYuheNx2wMtqtXKoHXcecLBarRpqx80HfKtWq4facf8Bt6rVVkPtuAWBR1Xk
+j7YUkWu74MTVeT6PphPRa7vg99UZPo+WExFpu+Dq1Rk+j4YSUWm74N3VGT6PthFRb7vg0lU5Ps+
WENFvu+DIVTk+z7YQEW274P5U2T7Plg+Rbbvg9FTZPs+2DtFtu+DqVNmnmHBxykzz7Bg3ZSZZ1hw
a8rMMywYNOX0Myx4MuX0MyzYMOX0Myw4L+X0MyyYLeWMZ1iwWMoZz7BgrJQznmHBTilnPMOCiVLm
n2HBOinzz7BgmJT5Z1iwScr8MyyYI2X+GRYskSqT0+CCVJmcBuOjyuQ0eB1VJqfB3qimcxocjWo6
p8HEqKZzGnyLajqnwaqoZuQ0GBTVjJwGW6KakdNgRlQzchosiCqf02A8VPmcBruhyuc0mAxVPqfB
WqjyOQ2GQp3JafAQ6kxOg21QZ3IanII6k9NgDtTTOQ1+QD2d02AB1NM5Da4/PZ3TYPTTM3Ia7H16
Rk6DqU/PyGmw8ukZOQ0GPp3PabDt6XxOg1lP53MaLHo6n9NgzNPZnI52vMz8PDrwMvPzaLrLzM+j
zy4zP4/Wuun5eXTTTc/Po4Fuen4ePXPT8/Nok5sxP4/muBnz82iJmzE/j0a4GfPzaH/Lz8+j6S0/
P49Wt/z8PBrc8vPzaGvLz8+jmY1Oz1Gif41Oz1GiZY1Oz1GiS41Oz1GiMY1OzlGiF41OzlGi/YxO
zlGi44xOzlGiyYxOzlGir4zm5yjRTUbzc5ToIaP5OUp0jtH8HCX6xWh2jhJdYjQ7R4neMJqdo0RH
GM3OUaIPjGbnKKn7i2QmKanhi2RmKanHi2SmKamti2TmKamTi0xPVFLzFpmeqaR+LTI9VUktWmR6
rpK6ssj0ZCU1YpHsbCW1X5HsdCU1XZHsfCW1WpHshCU1WJHcjCW1VZHclCU1U5HcnCW1UJHcpCU1
TpHcrOX/6StHBrZaAAA=
;
  
  
   gzip+base64
   35
  
  'aiida/nodes/67/49/e87e-41c4-41a3-846f-fb3e8f9bb77b/path/_scheduler-stdout.txt'
   d41d8cd98f00b204e9800998ecf8427e
   da39a3ee5e6b4b0d3255bfef95601890afd80709
   ?
   ?
   ''
   .
   36
  
  'aiida/nodes/67/49/e87e-41c4-41a3-846f-fb3e8f9bb77b/path/_scheduler-stderr.txt'
   d41d8cd98f00b204e9800998ecf8427e
   da39a3ee5e6b4b0d3255bfef95601890afd80709
   ?
   ?
   ''
   .
   37  aiida/nodes/67/49/e87e-41c4-41a3-846f-fb3e8f9bb77b/path/aiida.out
   d41d8cd98f00b204e9800998ecf8427e
   da39a3ee5e6b4b0d3255bfef95601890afd80709
   ?
   ?
   ''
   .
   38
  
  'aiida/nodes/24/b3/76f7-5673-4822-8438-7740b7b9e935/path/1000000_molecule_0.cif'
   4b9ad507dae17eb838f111ac6bbcba3b
   e8b03f22db2c3a64252563bc8c0632cb9ffe9d44
   ?
   ?
  
;H4sICMYnf1QC/3RtcEt5eEVsSgCVm8tu48gVhvd+Cu7sBmyBdS9OVo3eOAl62phcFjMZELRM28pQ
kqNLj9ULP3vqwjpVpC0WTycYFKX/o0ieC8Wj3w/NoalJ6f7V623XLo9dW5cX3Xb7Ul/UL8f7rm6O
h+ftrt406/bi8u652RT/NP95vi7+sbi8uPza7Hbbw3XxN7vxS7tpjg+rTb/5tVntt5tNe/zeXhf/
Nq/4He7b5WG13dSH1aFrL/5y8dvtG3v7+erL7Rt9+/Qm3n62278vPnd35oVvb/rt9rpoiu2mvXlY
rdvN3rBNVzTdcb3abF+et/uX5+Zgd1T/d3vcmffq1X5/bIv3/6oosadTPx67biS5/Lw8NMWX3Wl/
aLpu+7RrXp5Xy8acrT/q4stl3MlL82R2strtD8OdkFKxkaprxiKr4lH1fWtO6IODFjJqTm2z++C0
CmrCd1Ev266ru3bzdHiumw9UaqGVZlf001B6/4GUlAsudVVekXKkXn6klotS6vKKB22zeTJp1HQm
MO9CUC7gWL3svj28P9pKLAhX6ed78VOzXk/uc902++OuNXlyqA/t+qXdNQez7a5SJd3JP6weH3eb
ulnfrz5QvdPtmodV4xJ2vd1sl8+77bo5bE0cfG6YzHuv3JuALWMwLx9XJnsft8vjvti3Tdc+FIfj
fXv5AXk4vaRJ8HX79/80H8j+bL63PiJOtlA+5YKufew2+/rwbC5tvW5eY6JUC/1O1q3Wq0P9nAhJ
eVaz2vSam3OiP9IdsbOaZEf8Y1GX7Kg6K4n7ocTkwPahfji+dKZkD21twrs7jSqFEMZ64X63rJfP
7dqIu/pxu1sfO3O5tqv2cCour76I4pbI4mdafPrtc3d7R4tvuvj9cgLdH9cu2o5UxefOwga6owll
jt8kQ93t61/qx2ZpMskUiulCCx/BCdmTbSCLUmj+kezPwe4WtJTVtMy8Zj6USXpR26Z9qJe7ts/z
1nT8h4vLvz78VCxXj3BjMOnDSnsJ+Q0hNyUryuonyn7i8tei2TzsVse9Pc8zVyU22I5oc3108Y1w
Xtwx2V+cB3sv8oVjemo3aIU37yX33Xb5x6BluX99GwgfftysDvv610G3uqj3p7U5x92p3r80ZldP
u+3xxd8Rbm++2mO8K8ilvwkWUdz+77j6Xr9s93Wzr19PP4rL1+vidF38uAz3S9MX1vXetATT7u/b
Ln3B1rXd1f128PLjzgSjfn3/0un9Sz/Sl/5lbnLb2oTRHVX6zna5PL40m+VgDz4BXFd87Jqnffqe
CdbSvXrxjRTfinJBpOZlaRaVon5RSqnMYlEyVV2pTwUpFsXDxTfp5IIQ6VSyMvnh5BX1ci7llQa5
8nsv3b7M3jXxe6eEV04uKLmqQK6d3IiJU+lK+I8xFSD8wVQ67v2OFHf2YERVVlalzDlQJ6esklZO
zS2KBfktrUlNBC9uixu2oFr5Y1JC2U+7saccDkoa5JfCXiVPUU9RHMU8RXAU91SJo4SjjJZQNhuS
DiI4SDmI4iDtIIaDKgdxDMRqIoUPcE+Zq89p1af0OYh6iKIg5iGCgriHShQkHAQZMYuRjiEoRjmG
ohjtGIZiKsfwucw34gpXmOZg4qpZ33tyrYq4wnUUxVHMUwRHcU+VOEo6iszvwMTVoIUoDtIOYjio
chDHQLYGuY9VTxHTiZUMlXsWox6jSIx5jCAx7rESiQmHQZBnUtJRBEkpR1EkpR3FkFTlKI6gwu3U
RZpx5nNelUr3GNOyx9gIo6KPNA5joo80DuOijzQOE8JHWpqQz6ek8JHGUUr4SOMoLXykcVQlfKQx
lL+vukj3mGnaFaW+E5ynqOz7L4pisu+/KIrLvv+iKOEoyI15kJS+aaMgJX3TRkFa+qaNgirpm/Zs
iKWlXBGifav33/Jtiyy59pgmIwxKGYdBKeMwKGUcFkq51JrOp0Ip46hQyjgqlDKOCqWMoZJS7jF3
hr4VTFBQyigKShlFQSmjqFDKfW7Mg0Ipo6BQyigolDIKCqU8G+K2lEOAddlTRPXP6YSLqn9OV8mD
t6UgwCgKAoyiIMAoKgSYVH1WzIFCgFFQCDAKCgFGQSHACIjFXt1T5jrSUvWFfx6DXo3DoFfjMOjV
OCz06j4zZlKhV+Oo0KtxVOjVOCr06vmUSO/KoqqEx3gZvq1RQT3GRDJzE+ldGYdBpHEYRBqHhUib
foagQqRxVIg0jgqRxlEh0hgquSv3mCk3UfXf2s5T0LRRFDRtFAVNG0WFpt3nxjwoNG0UFJo2CgpN
GwWFpj0bkukEi4dbeG56LtMJFoqCCRaKggkWigoTrNk/CshkgoWCwgQLBYUJFgJKJlg9ZR71ytCt
JzCYYOEwmGDhMJhg4bAwweqDPJMKEywcFSZYOCpMsHBUmGDNp9RgrlwxNutHKjWYK2OoOFfGUHGu
jKFgrjz3tzeVzpUxEMyVMRDMledD6VzZU+ZpiOj+eXcCi3NlFBbnyigszpVRGMyVfZBnUjBXRlEw
V0ZRMFdGUTBXnk3ptCoZrao5vwU7CqoSRUFVoiioShQVqnLuT9wOClWJgkJVoqBQlQgoqcqesgXD
ed94z2NQlTgMqhKHQVXisFCVfZBnUqEqcVSoShwVqhJHhaqcTd2F32Dv3DdYXlZkhuXiLvwGe+e+
wWIo5imCo7inShwlHUVmO0nuwm+wd/YbLAbSDmI4qHIQx0C+Kl2seoqYdisq3T+FnsWoxygSYx4j
SIx7rERiwmEQ5JmUdBRBUspRFElpRzEkVTmKIyjaT3tdpKuSCe5usUJI5kaIjJtitlQ1pqjsqxJF
MdlXJYrisq9KFCUcZb+8Sy7nQlL6UkZBSvpSRkFa+lJGQZX0pYyA/LTXBbinzHXknCk/OjyPUdGX
Mg5joi9lHMZFX8o4TAhfyn1mzKSk8KWMo5TwpYyjtPCljKMq4Ut5NvW5I/2493Pn7GuCKuVAUdHQ
A+y4yYJcXvEhSHuQYkHWgwQL8h4ssaDwoPn+zxVl8znpOYLllOcoltOeY1iu8hzHcX4A7GPfg6YE
ean6G/15jvYcRXKs5wiS4z1XIjnhOciXmZj0GEFiymMUiWmPMSRWeYzPxpy5Hf78arWvX7bdad26
v/U5tftgLx+onH+7t5m/f2O7Wz2dfzdY2s+8Zz5s9XD+vdfTj4/ePOyazb47Q/Zvvk68d5p478MP
XB+7w7nX6539UwZnaCeF7TLCXOrX69P1j8KuS/c/XhDnYZfTClWY/08qtP0rjymFNadPH0f0o9PC
L4LOrm+4kd2QqKRBSROlXd+wkZIFJUuUdn1DR0oelDxR2rURDZUiKEWitOtyJJRBKBOhXw+FKghV
IrTr8UHqINSJ0K7H510FYZUI7Xp4KXuPOC38ghU3r9c3p+sbc93N5o0/UtDSoKVDrd00V36gZUHL
hlq7aa79QMuDlg+1dtMc60ArglYMtXazHEplkMqh1G6O9qqCVA2ldnN0sDpI9VDqNwfSKkirodRu
xksbLd2k8IuY+8LnfiKkQUgToV271E+ELAhZIrRrl/mJkAchT4R27RI/EcoglInQrwc6FXQq0dn1
6IN10OlEZ9ejM6mCrkp0dj24NP3wjRR+MUhl7lO5z/tosCaFXwxymftcTsUsiNlQbDddMqdiHsR8
KLabLptTsQhiMRTbzXKklUErh1q7Od6vClo11NrN8QHroNVDrd8caqugrYZau5leYjBE5/p59EDn
+nm0Pef6eXQ65/p5NDdn+nn0M2f6ebQwZ/p5dC1n+nk0Kmf6efQm5/t5dCTn+3n0Ief7eXQf5/t5
9Bxn+3l0Gmf7efQXZ/t5dBVn+3n0Euf7OTiIWS73wTTMcrkPPmGWy32wBrNc7oMbmGVyHwzALJP7
4PllmdwHmy/L5D44e1km98HMy/K5DxZels99MO6yfO6DXZflcx9Muiyb+2DNZdncB0Muy+Y+2HBZ
NvfBfMuyuQ+WW174BeT+KAbgsrVCmgjHAQBjrRWyRDi++uCltUKeCMeXHuyzVigS4ei6g2PW6mSi
G110MMlanUp0oysOvlir04ludLnBCmt1VaJ7d6179ysv/CJN+XGrAc+rFdOh+F23AaerFbOh+F3D
AX+rFfOh+F3PAVerFYuheNx2wMtqtXKoHXcecLBarRpqx80HfKtWq4facf8Bt6rVVkPtuAWBR1Xk
+j7YUkWu74MTVeT6PphPRa7vg99UZPo+WExFpu+Dq1Rk+j4YSUWm74N3VGT6PthFRb7vg0lU5Ps+
WENFvu+DIVTk+z7YQEW274P5U2T7Plg+Rbbvg9FTZPs+2DtFtu+DqVNmnmHBxykzz7Bg3ZSZZ1hw
a8rMMywYNOX0Myx4MuX0MyzYMOX0Myw4L+X0MyyYLeWMZ1iwWMoZz7BgrJQznmHBTilnPMOCiVLm
n2HBOinzz7BgmJT5Z1iwScr8MyyYI2X+GRYskSqT0+CCVJmcBuOjyuQ0eB1VJqfB3qimcxocjWo6
p8HEqKZzGnyLajqnwaqoZuQ0GBTVjJwGW6KakdNgRlQzchosiCqf02A8VPmcBruhyuc0mAxVPqfB
WqjyOQ2GQp3JafAQ6kxOg21QZ3IanII6k9NgDtTTOQ1+QD2d02AB1NM5Da4/PZ3TYPTTM3Ia7H16
Rk6DqU/PyGmw8ukZOQ0GPp3PabDt6XxOg1lP53MaLHo6n9NgzNPZnI52vMz8PDrwMvPzaLrLzM+j
zy4zP4/Wuun5eXTTTc/Po4Fuen4ePXPT8/Nok5sxP4/muBnz82iJmzE/j0a4GfPzaH/Lz8+j6S0/
P49Wt/z8PBrc8vPzaGvLz8+jmY1Oz1Gif41Oz1GiZY1Oz1GiS41Oz1GiMY1OzlGiF41OzlGi/YxO
zlGi44xOzlGiyYxOzlGir4zm5yjRTUbzc5ToIaP5OUp0jtH8HCX6xWh2jhJdYjQ7R4neMJqdo0RH
GM3OUaIPjGbnKKn7i2QmKanhi2RmKanHi2SmKamti2TmKamTi0xPVFLzFpmeqaR+LTI9VUktWmR6
rpK6ssj0ZCU1YpHsbCW1X5HsdCU1XZHsfCW1WpHshCU1WJHcjCW1VZHclCU1U5HcnCW1UJHcpCU1
TpHcrOX/6StHBrZaAAA=
;
  
  
   gzip+base64
   39
   'aiida/nodes/24/e1/40e8-a41e-42c7-bea9-70d00167068d/raw_input/_aiidasubmit.sh'
   8a86fe1511ed096473f56323a69622cf
   e3c5904b3154ad6a56025f3df2fd992bdccae5af
   ?
   ?
  
;H4sICMYnf1QC/3RtcGx5TVJxawBdUU1PAjEQvfdXVDj01O0CJgYiJurFu97JsjvASLetnSnRf++A
iguHNnkf82Y6Hd+4NQa3bmin1Pj16fHt+UVbG6LN8FGgwIB8j2sbmh6Wowaxa+xsfjcayFtgWwiy
hXAY0LFwKrxcUbuDrnjRiTshK/7kgQ1yjvnKJdyVK8QOaDkZMtzQnmySiqN4oTHKsHW9mNWLulZK
9fEYrX1sOo2BwfcJ3W01qWZnTR6g3S724HrI+y9yP/wGPdBFfRs7yzF6ctP5dK6UkaxcgtHGhiT3
RM5FEOXW/RexePdOpvaW2oyJybW4WVHyyKuUsUfGAxzTfhdoO8wCTwaj77U5/UGF0vHhD4jT6OkZ
yvqM+gZfeRve4QEAAA==
;
  
  
   gzip+base64
   40  'aiida/nodes/24/e1/40e8-a41e-42c7-bea9-70d00167068d/raw_input/aiida.in'
   1251a57106f3b475d5d976343996124d
   723d198f48d56102cb775afe9fcdeec13c049bba
   ?
   ?
  
;H4sICMYnf1QC/3RtcDVSQnZxWQDtnEtz20iSx+/6FLhJHSEpUO+q3pNb3RHe3Whb0fM4zOwEAqYo
izsgqeWjx/LBn33qmVWgRBRyYg57sGfUAZD/HwhUZSaI5B946A99R1r/r1tvh+XiOCy79mLYbp+7
i+75+Gno+uPhabvrNv16eXF5/9Rvmj/a/zxdN3+4vby4/LXf7baH6+a/3Mpvy01/fFht4uqv/Wq/
3WyWx9+X182f7Sthg/vl4rDabrrD6jAsL/7j4q/vv7FvH67u3n+j3374Jr59cOt/u3033NsXPn7T
395fN32z3SxvHlbr5WZv2X5o+uG4Xm22z0/b/fNTf3Ab6v53e9zZ97rVfn9cNq//mSxxh9M9Hofh
RHL5bnHom7vdy/7QD8P2865/flotenu0Ya+bu8u8kef+s93Iarc/jDdCWsVOVEN/KnIqnlW/b+0B
vbHTQmbNy7LfvXFYDbXTd9EtlsPQDcvN58NT17+hUrdaaXZFfxhLP70hJe0tl9q0V6Q9US/eUsvb
Vur2iidtv/lsw6gf7MS8moL2FvY1yD4tD6/31ohbwlX5+UH8uV+vJ7e5Xvb7425p4+TQHZbr5+Wu
P9h1P0pG+oN/WD0+7jZdv/60ekP1SrfrH1a9D9j1drNdPO226/6wtfMQYsNG3mvl3k7YIk/m5ePK
Ru/jdnHcN/tlPywfmsPx0/LyDfLw8lwGwa/b//6f/g3ZP/rfl2FGvOxWhZBLuuXjsNl3hyc7tN26
/5IDxdzqV7JhtV4duqdCSNqzmtUmam7Oif5eboid1RQb4m+LhmJD5qwkb4cSGwPbh+7h+DzYlD0s
Ozu9u5eTTCGEsSjc7xbd4mm5tuKhe9zu1sfBDtd2tTy8NJdXd6J5T2TzgTY//PXd8P6eNh9187fL
CXR/XPvZ9qRq3g0OttA9LSi7/zYYumHf/dY99gsbSTZRbBW6DTM4IfvsCshtKzR/S/aP0eZuaSvN
tMy+Zj+USXrRuaJ96Ba7ZYzzpa34DxeX//nwY7NYPcKJwYYPa90Q8htCblrWtOZHyn7k8i9Nv3nY
rY57d5xnRiUX2IFoOz66+Ug4b+6ZjIPz4M5FIXFsTR1GpfDmteTTsF38fVSy/L9YBtKHHzerw777
y6haXXT7l7U9xt1Lt3/u7aY+77bH53BGeH/zq9vH+4ZchpNgk8XL/zuufu+et/uu33dfXr42l1+u
m5fr5utlOl/aurDu9rYk2HL/aTmUL7i8dpv6tB29/Lizk9F9ef3Sy+uXvpYv/cme5LadnUa/V+U7
28Xi+NxvFqMthADwVfFx6D/vy/fsZC38qxcfSfOxaW+J1Lxt7YJRNCy0Uiq7cNsyZa7UDw1pbpuH
i4/SywUh0quksfHh5YYGOZfySoNcha23flt265qErVPCjZcLSq4MyLWXWzHxKm1E+BibASLsjNF5
6/ekuXc7I0xrnErZY6BeTpmRTk7tKYol+XvakY4I3rxvbtgt1SrskxLKfdqNO+S0U9IivzVulAJF
A0VxFAsUwVE8UC2OEp6yWkLZbEh6iOAg5SGKg7SHGA4yHuIYiHVEijDBkbKjz6mJIX0OogGiKIgF
iKAgHqAWBQkPQUTMYqRnCIpRnqEoRnuGoRjjGT6X+Uh84gpbHOy8ahZrT61UEZ+4nqI4igWK4Cge
qBZHSU+R+RWY+Bx0EMVB2kMMBxkPcQzkcpCHuYoUsZVYyZS5ZzEaMIrEWMAIEuMBa5GY8BhM8kxK
eoogKeUpiqS0pxiSMp7iCCqdTv1MM85CzKtW6YgxLSPGTjAq4kzjMCbiTOMwLuJM4zAhwkxLO+Xz
KSnCTOMoJcJM4ygtwkzjKCPCTGOocF71Mx0xW7QNpaESnKeojPUXRTEZ6y+K4jLWXxQlPAWxMQ+S
MhRtFKRkKNooSMtQtFGQkaFoz4ZYmcqGEB1KffiW70pky3XANDnBIJVxGKQyDoNUxmEplVut6Xwq
pTKOSqmMo1Iq46iUyhiqSOWI+SMMpWCCglRGUZDKKApSGUWlVI6xMQ9KqYyCUiqjoJTKKCil8myI
u1ROE6zbSBEVr9MJFyZep6viwttRMMEoCiYYRcEEo6g0wcTEqJgDpQlGQWmCUVCaYBSUJhgBsVyr
I2XHkbYqJv55DGo1DoNajcOgVuOwVKtjZMykUq3GUalW46hUq3FUqtXzKVGelYUxImC8Td/WqKAB
Y6LouYnyrIzDYKZxGMw0DkszbesZgkozjaPSTOOoNNM4Ks00hirOyhGz6SZM/NZ2noKijaKgaKMo
KNooKhXtGBvzoFS0UVAq2igoFW0UlIr2bEiWHSyeTuG17rksO1goCjpYKAo6WCgqdbBm/yggiw4W
CkodLBSUOlgIqOhgRcpe6rWpWk9g0MHCYdDBwmHQwcJhqYMVJ3kmlTpYOCp1sHBU6mDhqNTBmk+p
UV/ZMDbrRyo16itjqNxXxlC5r4yhoK8897c3VfaVMRD0lTEQ9JXnQ2VfOVD2aojoeL07geW+MgrL
fWUUlvvKKAz6ymGSZ1LQV0ZR0FdGUdBXRlHQV55N6TIrGTVmzm/BnoKsRFGQlSgKshJFpayc+xO3
h1JWoqCUlSgoZSUCKrIyUi5hOI+F9zwGWYnDICtxGGQlDktZGSd5JpWyEkelrMRRKStxVMrK2dR9
+g323n+D5a0hMywX9+k32Hv/DRZDsUARHMUD1eIo6Sky20lyn36DvXffYDGQ9hDDQcZDHAOFrPRz
FSliy60wOl6FnsVowCgSYwEjSIwHrEViwmMwyTMp6SmCpJSnKJLSnmJIyniKIygau71+pk3LBPen
WCEk8y1Exm0yO8qcUlTGrERRTMasRFFcxqxEUcJT7su75HIuJGVIZRSkZEhlFKRlSGUUZGRIZQQU
ur1+giNlx5FzpkLr8DxGRUxlHMZETGUcxkVMZRwmREjlGBkzKSlCKuMoJUIq4ygtQirjKCNCKs+m
3g0ktnvfDd6+JqhSHhSGphrg2k0O5PKKj0EaQYoFWQQJFuQRbLGgCKD9/s8VZfM5GTiC5VTgKJbT
gWNYzgSO47jQAA5zH0GbgrxV8UR/nqORo0iORY4gOR65FsmJwEG8zMRkwAgSUwGjSEwHjCExEzA+
G/Pmdrj9arXvnrfDy3rp7/V5We6TvXyk8v7taDN//cZ2t/p8/t1kaT/znv2w1cP59768fH3rzcOu
3+yHM2R888vEey8T7735gevjcDj3erdztzJ4QztpXJURdqi/XL9cf23ccuv/xxviPexyWqEa+/9J
hXZ3eUwpnDl9ej+yH502YSHp3PINt7IbkpU0KWmhdMs37ETJkpIVSrd8Q0+UPCl5oXTLVjRWiqQU
hdIttydCmYSyEIblsVAloSqEbvl0J3US6kLolk+P2yShKYRueTyU0SNOm7DAmpsv1zcv1zd23O3q
TdhT0NKkpWOtW7UjP9KypGVjrVu1Yz/S8qTlY61btfs60oqkFWOtW23HUpmkcix1qydbVUmqxlK3
erKzOkn1WBpWR1KTpGYsdat5aLOlmzRhIce+CLFfCGkS0kLoln3oF0KWhKwQumUf+YWQJyEvhG7Z
B34hlEkoC2FYHulU0qlC55ZPPlgnnS50bvnkSEzSmULnlkdDE5tvpAkLo1DmIZRj3GeDNWnCwiiW
eYjlUsySmI3FbtUHcynmSczHYrfqo7kUiyQWY7FbbU+0MmnlWOtWT7erklaNtW71dId10uqxNqyO
tSZpzVjrVsshBkN0rZ5nD3Stnmfbc62eZ6dzrZ5nc3Olnmc/c6WeZwtzpZ5n13KlnmejcqWeZ29y
vZ5nR3K9nmcfcr2eZ/dxvZ5nz3G1nmencbWeZ39xtZ5nV3G1nmcvcb2eg4OY1WIfTMOsFvvgE2a1
2AdrMKvFPriBWSX2wQDMKrEPnl9WiX2w+bJK7IOzl1ViH8y8rB77YOFl9dgH4y6rxz7YdVk99sGk
y6qxD9ZcVo19MOSyauyDDZdVYx/Mt6wa+2C55U1YgNg/mQNw2TohLYSnEwDGWidkhfB09MFL64S8
EJ4OPdhnnVAUwpNxB8es08lCdzLoYJJ1OlXoTkYcfLFOpwvdyXCDFdbpTKF7NdbR/cqbsFCG/Gmp
Ac+rE9Ox+FW1AaerE7Ox+FXBAX+rE/Ox+FXNAVerE4ux+LTsgJfVaeVYe1p5wMHqtGqsPS0+4Ft1
Wj3WntYfcKs6rRlrT0sQeFRFre6DLVXU6j44UUWt7oP5VNTqPvhNRaXug8VUVOo+uEpFpe6DkVRU
6j54R0Wl7oNdVNTrPphERb3ugzVU1Os+GEJFve6DDVRU6z6YP0W17oPlU1TrPhg9RbXug71TVOs+
mDpl5RoWfJyycg0L1k1ZuYYFt6asXMOCQVNOX8OCJ1NOX8OCDVNOX8OC81JOX8OC2VLOuIYFi6Wc
cQ0Lxko54xoW7JRyxjUsmChl/RoWrJOyfg0LhklZv4YFm6SsX8OCOVLWr2HBEqkqMQ0uSFWJaTA+
qkpMg9dRVWIa7I1qOqbB0aimYxpMjGo6psG3qKZjGqyKakZMg0FRzYhpsCWqGTENZkQ1I6bBgqjq
MQ3GQ1WPabAbqnpMg8lQ1WMarIWqHtNgKNSVmAYPoa7ENNgGdSWmwSmoKzEN5kA9HdPgB9TTMQ0W
QD0d0+D609MxDUY/PSOmwd6nZ8Q0mPr0jJgGK5+eEdNg4NP1mAbbnq7HNJj1dD2mwaKn6zENxjxd
jelsx6v0z7MDr9I/z6a7Sv88++wq/fNsrZvun2c33XT/PBvopvvn2TM33T/PNrkZ/fNsjpvRP8+W
uBn982yEm9E/z/a3ev88m97q/fNsdav3z7PBrd4/z7a2ev88m9nodB8l+9fodB8lW9bodB8lu9To
dB8lG9PoZB8le9HoZB8l28/oZB8lO87oZB8lm8zoZB8l+8povY+S3WS03kfJHjJa76Nk5xit91Gy
X4xW+yjZJUarfZTsDaPVPkp2hNFqHyX7wGi1j1K6v0ilk1Iavkill1J6vEilm1Laukiln1I6uch0
R6U0b5Hpnkrp1yLTXZXSokWm+yqlK4tMd1ZKIxap9lZK+xWpdldK0xWp9ldKqxWpdlhKgxWp9VhK
WxWpdVlKMxWp9VlKCxWpdVpK4xSp9Voe3nxqNfn+1OrvT63+/tTq70+t/v7U6u9Prf63P7UaxvX7
06r/vzyt+o40d85AzlR42gYz8YGORJDwMCylbEm0Xxt+bh4u7qhXaxkfuMO51vEWc8O9WutCzYLa
tOEme2EIi2rlb4gkJN6u4dXcqw1lYU+kIiQ+tYn6PSGCXYmk/kCaD26TUoRNckFFVEseHxei3Tkk
PaqavPMP/OWGhZvieRtJVxU8IMuH6pKfvFyoNsitONyTTOwFwRvyuyCncTy43bEgN4q+If85PFra
PVYh7AzT8QEaOmzd0FL+S5BTEVSspWGByDhJIzkNh6ppHBJOVRhJqvzY2nojSnk4VKPiEfI2yYl8
Q87C1pUhcZ7cg4a9nJkwq6zcGRa3rkXYGdnGZ3Dbg1Gv5Tzuu2jj1nmMgtZt3Mk1L+Vh69qQ9GBv
rWL4+nkey+9E7J/d+ftz4/BIGSeNUBIiwZgclh9oZD64+2TSsSoWMyA+W8yFm8l33L+nd5FyD4y2
8RWOQdnvF3Hv4kMjR1FBfy4gyoSKD1eJT1mhVL8RqPSXAiImPmVGExrHQcs3IPGuhJiM+anjoJM0
8USX0E8l1EoaH3WqSXp6sXkFfb/p4l+86cLV5embHVwtptMKW3/ZtMLWXD6pcHW2ctOFq6z2b1pj
89T+TWtsDbV/0xpbOO3ftMZWS/s3faOI3Wda2WdXF2lln10xZJXtuArIKttxZY9XtuNqHZ/eTi5w
YvIHglzU6KSuqGP0rqKE4kV/riihYtFfppW5TIl3FSXUJvHTpPKfEvvR061rAAA=
;
  
  
   gzip+base64
   41
  
  'aiida/nodes/24/e1/40e8-a41e-42c7-bea9-70d00167068d/raw_input/.aiida/job_tmpl.json'
   8ada15af8cd8d37d1fedda55af1b4bca
   d40a321867e561a1e8c6f2649c08338476d89fbb
   ?
   ?
  
;H4sICMYnf1QC/3RtcDRhM3RfWgB1kdFu2zAMRX/F0HMdN02BNf2VdhAUiZm5SJRASVmKoP9eSs28
usBebOCSvPeQuioMKXLR+S1roDNypABU1PNQuMLdoH5HJH1ED1k0qt6LlhgSkNMFLq1Theiqh8FH
4wakAj4knB43283ulV7pVq0ZhmmOAaYAfHrL06ferZembmGjG0uMPk8P+4e9ksBcHDBrMgFankF0
ZiOK6oCHb+TX9zZiZ3A61pJq0cmUuQ3qrkoQj2IpxU2RDaTb8K+zNLwoIedKTRoptd+2fVbcme30
D1HORKcpAfsxW8ZU8mTxqHPyKLmMAQueoRuOnzSjww7eW9TPhVX2ifwfVKktqGl1++5UDxKjTdZz
9E7Uo/EZFuPVEy6lvv+3k4rS/IK56D/Ge+ujPekMNpJrs9un+/vbxRlyrGzb7FVRDToYOyP1iK30
dClh4mizluv8rbdyex4GuRuZg4cvTM14BTTu9j9u7y8rrFmR1PsHGgxgwr8CAAA=
;
  
  
   gzip+base64
   42
  
  'aiida/nodes/24/e1/40e8-a41e-42c7-bea9-70d00167068d/raw_input/.aiida/calcinfo.json'
   43b2824605f778499263cd3fd0fab35d
   48d8568bc1a46b43bff0fd3a2c68b2330dc1d73e
   ?
   ?
  
;H4sICMYnf1QC/3RtcGdPajJtRABtj10KwjAQhK9S8mxKWkJbvYpIiMmqC2la8iOKeHeTtohWH/eb
3dmZB3EQHMIVhEEfyK7YE4moZTnEQDbFMoBzefCjwYkKry6gowFHfdBptQy3P0I6m4RDUhz0QwCh
hvH+fpW5GZQ0v3i2FVb2kNB3ptl5pS0RVa8NWhCjdLL3Ux9K090YA9X40WLOtHT3aM8GTmhgHQLt
6g/a7BEj6sxqDhVn0FHJK6C8Vi09gtzSlmnGqqZlTafJ8wUIv536ZgEAAA==
;
  
  
   gzip+base64
   43
  
  'aiida/nodes/a5/22/4652-5800-47a7-a212-5b629040fe50/path/1000000_molecule_1.cif'
   b8e0558daccbe1945c0bac425e832e3d
   0b1aaa29181dc0c21c1cf20311e89d95c0e0aee6
   ?
   ?
  
;H4sICMYnf1QC/3RtcDFLSW1qNgCFl0tv2zgQx+/+FLzZBRxBJPVi95Q6Bby7aBp0H4d2C4KWaVtb
SvLqkcY5+LPv8GFbjmXZgQKa/M1oODP8M1mKRnDsmw/PSyXTVkmOR6ost3zEt+1CcdE2m7Lihcjl
aPy0EQX6E35tpugPbzwafxJVVTZT9Jv+8kUWol1mhfv6SWR1WRSyfZZT9DfMWIe1TJusLHiTNUqO
fhl9m+/p/nEym+/J/t0+3D/q79+9e/UEE5/3yX4+RQKVhbxbZrksarAVCgnV5llRbjdlvd2IRjvi
/5ZtBWs8q+tWossPOyF6O3zVKvUGGd+njUCzalc3QqlyXYntJksF7NZGjWbjk5OtWIOTrKqbcyfY
j+kbSom3kKaCE/VcwoZ6gg6jE7OTourZFiJQvhFPpVJcyWLdbLjooWIviRM6Ie/O0UUPin0viBLm
T7D/hk776Mjzo8SfBAdWFGtoI6GgMBcl8L1jrBZbyOYyWhZ6OIi777fwWuT5oM9cirqtJPRJwxuZ
b2UlGvhussQis/lltlpVBRf5IuuhLrhKLDNhGjYvizLdVGUumhLqYHsDOu+SrKFg6amY41UG3bsq
07ZGtRRKLlHTLuS4x7LZbbtN8Kn8/R/Rg/0Uz9JWxGBebFvuwMmVKmrebCC1PBcvp0ZhXnKBqSzP
Gr7pgNi/ymSFY+6uQT+6juhVpuMo6IdUxxG7ipz8EAw9UC75st0qOLKN5FDeavfmpGBMqQPrKuXp
RuYAK74qq7xVkK4yk80OjSezEM1xhB4JevftXs2fCPqcoO/jAdO6zU21jWWM7pU2BqMn0rGC+KEZ
uKr5F74SKXQSHBRQIc9WcABbawHx/DAJ+rCfZ+484kdsGIM5eCmNyIhr0W54WknX5xIUfzka/7p8
j9JsdbwYoH2or1MY3GF851Pks/eEvg+ir0gUyypra73PK1k5noVjXl1SlvoOsgcGtFSdSeDdJbJQ
ZfrjTKrMxx3/w0vbImtq/vVMpUa83uWwt2rH660AV+uqbLf2JpjffdKxPSE8tpcfOsHyvzZ75tuy
5qLmL7tXNH6Zot0UvY4P9yToQc5rkAKQ+YVU3Ql9nrWrRXk2vaqgCPzlcmp3OfXanfoLLreSQ/lM
VN2VMk3brSjSMw+28EYNV0qs6+4aFCk1s6MZRjPkezGN4SaBAWU0MgMc4gQGnh/HIIkIowe0HM2I
oZPIrMFNESR2QDALDJ0kHZpamvnUQCHD1NFxqGmM/Qk90oGhGaE2kiiGZRNJQEwkOKST8EA/YvSo
XUahdRmEJHR0ZCMJaKLvEOA94Of4Hs01x2hgDXxnqVXBGEQRsF+Qzg3gHwwexr7FAWYWJ2HQg88s
Tlw+AgjM4swk9i3+YPA4AVc2GGrtfJZY74x08Y8WJ6GlqE/sAEeuSGc4sVtNiEtJQGKbSRKb3ILe
hF3cbpXFboeBf8Bx1INT6z1m2NWJMLsJQpmtKu0GQ533JLTBRNBQFg+T+BIPXOyh77wHrgt87Vzj
SdDFrfeEYes0tk51+5o6n+OzkGMehSE0GoZdufREkSsaJth2AmOntnwkzuYRbMhhrzF1JwDHjLp2
YxN27DYyc1ZzsIL+snuI4e8LF10SXXYFeegYERranUQMWyNCkp5GJR87Rti2DyQEE5eHJOoxCu+7
RjRy5zNxSceHwuOka/Sha+RHlo39xBUoitiFkVNJreTH/zGMDDm1vFwoq2x9ffWgzFfW4GXZ8voa
KHjfYlOJolZXLN3iy8DabmCt94VwTzXX5uEvPbiJjS5jhHkY6rP3Mt1NX5Ee++YHetpoMRkmQH/p
MAGaGwwSWmeH4zDKCs8wA+cUnmEGNBSeYQaEE55hBtQSnkFGSyS5EbPWRXIjZi2G9IYfrYD0hh8t
e8ENP1rrgmE/J4EDwgwOnB0fq3oUNTLIdXSMzG6QR/EiDzfIo2KRj8PkSabC+xvkUZvCD4Pk/6HG
KQn3EAAA
;
  
  
   gzip+base64
   44  aiida/nodes/56/93/da76-6ba4-4bdf-9d4e-bf016fb52e61/path/aiida.out
   1251a57106f3b475d5d976343996124d
   723d198f48d56102cb775afe9fcdeec13c049bba
   ?
   ?
  
;H4sICMYnf1QC/3RtcGxRSHhIeADtnEtz20iSx+/6FLhJHSEpUO+q3pNb3RHe3Whb0fM4zOwEAqYo
izsgqeWjx/LBn33qmVWgRBRyYg57sGfUAZD/HwhUZSaI5B946A99R1r/r1tvh+XiOCy79mLYbp+7
i+75+Gno+uPhabvrNv16eXF5/9Rvmj/a/zxdN3+4vby4/LXf7baH6+a/3Mpvy01/fFht4uqv/Wq/
3WyWx9+X182f7Sthg/vl4rDabrrD6jAsL/7j4q/vv7FvH67u3n+j3374Jr59cOt/u3033NsXPn7T
395fN32z3SxvHlbr5WZv2X5o+uG4Xm22z0/b/fNTf3Ab6v53e9zZ97rVfn9cNq//mSxxh9M9Hofh
RHL5bnHom7vdy/7QD8P2865/flotenu0Ya+bu8u8kef+s93Iarc/jDdCWsVOVEN/KnIqnlW/b+0B
vbHTQmbNy7LfvXFYDbXTd9EtlsPQDcvN58NT17+hUrdaaXZFfxhLP70hJe0tl9q0V6Q9US/eUsvb
Vur2iidtv/lsw6gf7MS8moL2FvY1yD4tD6/31ohbwlX5+UH8uV+vJ7e5Xvb7425p4+TQHZbr5+Wu
P9h1P0pG+oN/WD0+7jZdv/60ekP1SrfrH1a9D9j1drNdPO226/6wtfMQYsNG3mvl3k7YIk/m5ePK
Ru/jdnHcN/tlPywfmsPx0/LyDfLw8lwGwa/b//6f/g3ZP/rfl2FGvOxWhZBLuuXjsNl3hyc7tN26
/5IDxdzqV7JhtV4duqdCSNqzmtUmam7Oif5eboid1RQb4m+LhmJD5qwkb4cSGwPbh+7h+DzYlD0s
Ozu9u5eTTCGEsSjc7xbd4mm5tuKhe9zu1sfBDtd2tTy8NJdXd6J5T2TzgTY//PXd8P6eNh9187fL
CXR/XPvZ9qRq3g0OttA9LSi7/zYYumHf/dY99gsbSTZRbBW6DTM4IfvsCshtKzR/S/aP0eZuaSvN
tMy+Zj+USXrRuaJ96Ba7ZYzzpa34DxeX//nwY7NYPcKJwYYPa90Q8htCblrWtOZHyn7k8i9Nv3nY
rY57d5xnRiUX2IFoOz66+Ug4b+6ZjIPz4M5FIXFsTR1GpfDmteTTsF38fVSy/L9YBtKHHzerw777
y6haXXT7l7U9xt1Lt3/u7aY+77bH53BGeH/zq9vH+4ZchpNgk8XL/zuufu+et/uu33dfXr42l1+u
m5fr5utlOl/aurDu9rYk2HL/aTmUL7i8dpv6tB29/Lizk9F9ef3Sy+uXvpYv/cme5LadnUa/V+U7
28Xi+NxvFqMthADwVfFx6D/vy/fsZC38qxcfSfOxaW+J1Lxt7YJRNCy0Uiq7cNsyZa7UDw1pbpuH
i4/SywUh0quksfHh5YYGOZfySoNcha23flt265qErVPCjZcLSq4MyLWXWzHxKm1E+BibASLsjNF5
6/ekuXc7I0xrnErZY6BeTpmRTk7tKYol+XvakY4I3rxvbtgt1SrskxLKfdqNO+S0U9IivzVulAJF
A0VxFAsUwVE8UC2OEp6yWkLZbEh6iOAg5SGKg7SHGA4yHuIYiHVEijDBkbKjz6mJIX0OogGiKIgF
iKAgHqAWBQkPQUTMYqRnCIpRnqEoRnuGoRjjGT6X+Uh84gpbHOy8ahZrT61UEZ+4nqI4igWK4Cge
qBZHSU+R+RWY+Bx0EMVB2kMMBxkPcQzkcpCHuYoUsZVYyZS5ZzEaMIrEWMAIEuMBa5GY8BhM8kxK
eoogKeUpiqS0pxiSMp7iCCqdTv1MM85CzKtW6YgxLSPGTjAq4kzjMCbiTOMwLuJM4zAhwkxLO+Xz
KSnCTOMoJcJM4ygtwkzjKCPCTGOocF71Mx0xW7QNpaESnKeojPUXRTEZ6y+K4jLWXxQlPAWxMQ+S
MhRtFKRkKNooSMtQtFGQkaFoz4ZYmcqGEB1KffiW70pky3XANDnBIJVxGKQyDoNUxmEplVut6Xwq
pTKOSqmMo1Iq46iUyhiqSOWI+SMMpWCCglRGUZDKKApSGUWlVI6xMQ9KqYyCUiqjoJTKKCil8myI
u1ROE6zbSBEVr9MJFyZep6viwttRMMEoCiYYRcEEo6g0wcTEqJgDpQlGQWmCUVCaYBSUJhgBsVyr
I2XHkbYqJv55DGo1DoNajcOgVuOwVKtjZMykUq3GUalW46hUq3FUqtXzKVGelYUxImC8Td/WqKAB
Y6LouYnyrIzDYKZxGMw0DkszbesZgkozjaPSTOOoNNM4Ks00hirOyhGz6SZM/NZ2noKijaKgaKMo
KNooKhXtGBvzoFS0UVAq2igoFW0UlIr2bEiWHSyeTuG17rksO1goCjpYKAo6WCgqdbBm/yggiw4W
CkodLBSUOlgIqOhgRcpe6rWpWk9g0MHCYdDBwmHQwcJhqYMVJ3kmlTpYOCp1sHBU6mDhqNTBmk+p
UV/ZMDbrRyo16itjqNxXxlC5r4yhoK8897c3VfaVMRD0lTEQ9JXnQ2VfOVD2aojoeL07geW+MgrL
fWUUlvvKKAz6ymGSZ1LQV0ZR0FdGUdBXRlHQV55N6TIrGTVmzm/BnoKsRFGQlSgKshJFpayc+xO3
h1JWoqCUlSgoZSUCKrIyUi5hOI+F9zwGWYnDICtxGGQlDktZGSd5JpWyEkelrMRRKStxVMrK2dR9
+g323n+D5a0hMywX9+k32Hv/DRZDsUARHMUD1eIo6Sky20lyn36DvXffYDGQ9hDDQcZDHAOFrPRz
FSliy60wOl6FnsVowCgSYwEjSIwHrEViwmMwyTMp6SmCpJSnKJLSnmJIyniKIygau71+pk3LBPen
WCEk8y1Exm0yO8qcUlTGrERRTMasRFFcxqxEUcJT7su75HIuJGVIZRSkZEhlFKRlSGUUZGRIZQQU
ur1+giNlx5FzpkLr8DxGRUxlHMZETGUcxkVMZRwmREjlGBkzKSlCKuMoJUIq4ygtQirjKCNCKs+m
3g0ktnvfDd6+JqhSHhSGphrg2k0O5PKKj0EaQYoFWQQJFuQRbLGgCKD9/s8VZfM5GTiC5VTgKJbT
gWNYzgSO47jQAA5zH0GbgrxV8UR/nqORo0iORY4gOR65FsmJwEG8zMRkwAgSUwGjSEwHjCExEzA+
G/Pmdrj9arXvnrfDy3rp7/V5We6TvXyk8v7taDN//cZ2t/p8/t1kaT/znv2w1cP59768fH3rzcOu
3+yHM2R888vEey8T7735gevjcDj3erdztzJ4QztpXJURdqi/XL9cf23ccuv/xxviPexyWqEa+/9J
hXZ3eUwpnDl9ej+yH502YSHp3PINt7IbkpU0KWmhdMs37ETJkpIVSrd8Q0+UPCl5oXTLVjRWiqQU
hdIttydCmYSyEIblsVAloSqEbvl0J3US6kLolk+P2yShKYRueTyU0SNOm7DAmpsv1zcv1zd23O3q
TdhT0NKkpWOtW7UjP9KypGVjrVu1Yz/S8qTlY61btfs60oqkFWOtW23HUpmkcix1qydbVUmqxlK3
erKzOkn1WBpWR1KTpGYsdat5aLOlmzRhIce+CLFfCGkS0kLoln3oF0KWhKwQumUf+YWQJyEvhG7Z
B34hlEkoC2FYHulU0qlC55ZPPlgnnS50bvnkSEzSmULnlkdDE5tvpAkLo1DmIZRj3GeDNWnCwiiW
eYjlUsySmI3FbtUHcynmSczHYrfqo7kUiyQWY7FbbU+0MmnlWOtWT7erklaNtW71dId10uqxNqyO
tSZpzVjrVsshBkN0rZ5nD3Stnmfbc62eZ6dzrZ5nc3Olnmc/c6WeZwtzpZ5n13KlnmejcqWeZ29y
vZ5nR3K9nmcfcr2eZ/dxvZ5nz3G1nmencbWeZ39xtZ5nV3G1nmcvcb2eg4OY1WIfTMOsFvvgE2a1
2AdrMKvFPriBWSX2wQDMKrEPnl9WiX2w+bJK7IOzl1ViH8y8rB77YOFl9dgH4y6rxz7YdVk99sGk
y6qxD9ZcVo19MOSyauyDDZdVYx/Mt6wa+2C55U1YgNg/mQNw2TohLYSnEwDGWidkhfB09MFL64S8
EJ4OPdhnnVAUwpNxB8es08lCdzLoYJJ1OlXoTkYcfLFOpwvdyXCDFdbpTKF7NdbR/cqbsFCG/Gmp
Ac+rE9Ox+FW1AaerE7Ox+FXBAX+rE/Ox+FXNAVerE4ux+LTsgJfVaeVYe1p5wMHqtGqsPS0+4Ft1
Wj3WntYfcKs6rRlrT0sQeFRFre6DLVXU6j44UUWt7oP5VNTqPvhNRaXug8VUVOo+uEpFpe6DkVRU
6j54R0Wl7oNdVNTrPphERb3ugzVU1Os+GEJFve6DDVRU6z6YP0W17oPlU1TrPhg9RbXug71TVOs+
mDpl5RoWfJyycg0L1k1ZuYYFt6asXMOCQVNOX8OCJ1NOX8OCDVNOX8OC81JOX8OC2VLOuIYFi6Wc
cQ0Lxko54xoW7JRyxjUsmChl/RoWrJOyfg0LhklZv4YFm6SsX8OCOVLWr2HBEqkqMQ0uSFWJaTA+
qkpMg9dRVWIa7I1qOqbB0aimYxpMjGo6psG3qKZjGqyKakZMg0FRzYhpsCWqGTENZkQ1I6bBgqjq
MQ3GQ1WPabAbqnpMg8lQ1WMarIWqHtNgKNSVmAYPoa7ENNgGdSWmwSmoKzEN5kA9HdPgB9TTMQ0W
QD0d0+D609MxDUY/PSOmwd6nZ8Q0mPr0jJgGK5+eEdNg4NP1mAbbnq7HNJj1dD2mwaKn6zENxjxd
jelsx6v0z7MDr9I/z6a7Sv88++wq/fNsrZvun2c33XT/PBvopvvn2TM33T/PNrkZ/fNsjpvRP8+W
uBn982yEm9E/z/a3ev88m97q/fNsdav3z7PBrd4/z7a2ev88m9nodB8l+9fodB8lW9bodB8lu9To
dB8lG9PoZB8le9HoZB8l28/oZB8lO87oZB8lm8zoZB8l+8povY+S3WS03kfJHjJa76Nk5xit91Gy
X4xW+yjZJUarfZTsDaPVPkp2hNFqHyX7wGi1j1K6v0ilk1Iavkill1J6vEilm1Laukiln1I6uch0
R6U0b5Hpnkrp1yLTXZXSokWm+yqlK4tMd1ZKIxap9lZK+xWpdldK0xWp9ldKqxWpdlhKgxWp9VhK
WxWpdVlKMxWp9VlKCxWpdVpK4xSp9Voe3nxqNfn+1OrvT63+/tTq70+t/v7U6u9Prf63P7UaxvX7
06r/vzyt+o40d85AzlR42gYz8YGORJDwMCylbEm0Xxt+bh4u7qhXaxkfuMO51vEWc8O9WutCzYLa
tOEme2EIi2rlb4gkJN6u4dXcqw1lYU+kIiQ+tYn6PSGCXYmk/kCaD26TUoRNckFFVEseHxei3Tkk
PaqavPMP/OWGhZvieRtJVxU8IMuH6pKfvFyoNsitONyTTOwFwRvyuyCncTy43bEgN4q+If85PFra
PVYh7AzT8QEaOmzd0FL+S5BTEVSspWGByDhJIzkNh6ppHBJOVRhJqvzY2nojSnk4VKPiEfI2yYl8
Q87C1pUhcZ7cg4a9nJkwq6zcGRa3rkXYGdnGZ3Dbg1Gv5Tzuu2jj1nmMgtZt3Mk1L+Vh69qQ9GBv
rWL4+nkey+9E7J/d+ftz4/BIGSeNUBIiwZgclh9oZD64+2TSsSoWMyA+W8yFm8l33L+nd5FyD4y2
8RWOQdnvF3Hv4kMjR1FBfy4gyoSKD1eJT1mhVL8RqPSXAiImPmVGExrHQcs3IPGuhJiM+anjoJM0
8USX0E8l1EoaH3WqSXp6sXkFfb/p4l+86cLV5embHVwtptMKW3/ZtMLWXD6pcHW2ctOFq6z2b1pj
89T+TWtsDbV/0xpbOO3ftMZWS/s3faOI3Wda2WdXF2lln10xZJXtuArIKttxZY9XtuNqHZ/eTi5w
YvIHglzU6KSuqGP0rqKE4kV/riihYtFfppW5TIl3FSXUJvHTpPKfEvvR061rAAA=
;
  
  
   gzip+base64
   45
   'aiida/nodes/3e/35/c0b6-c486-4172-8f40-7e9391f89b02/raw_input/_aiidasubmit.sh'
   c7a10f6f09dcee667d34873d8ba26a8e
   8c8667dd0cdca6399cc70578cf894a8e1e24dd5c
   ?
   ?
  
;H4sICMYnf1QC/3RtcEVrYWs3QwBdUctSAyEQvPMVmBz2xLKbeEnKWKVevOs9xcLEYIBBHpb+vbMb
Hxupgqrp7mmGZnklBxvkoPKRseXT/d3zwyMXIqBI8Fahwgx8xUEE5WG3UNYaJdabfjGjX6CImiEJ
CO8zGGuJtez2WR/BVEd8LobAtnyUmQxSwvRPRdg/VUADedfPkaLyKYtIHSN5wRVLw3bddt1tu44x
5nG05g6V4TYUcD5aed327ZoxPq1vBT2DyyN6kB7S6TPLM36wDvKlcvLSaERBdFmuNqsNYw35phoa
3ogQ6expX9jlpOVfUyHtSdILnMg62Viy1Paw9+hA0x2jzRismBRRJcp4wnx1xUYHwqiiBoeacjin
3fAb3kyf1Foa4/anwJFa/ZaUb8O+AI0dLIUCAgAA
;
  
  
   gzip+base64
   46  'aiida/nodes/3e/35/c0b6-c486-4172-8f40-7e9391f89b02/raw_input/aiida.in'
   cea462a356b150d9c6f5468fbab725c1
   290b23a67fb98d4f1a08006fab29ec89719e2a08
   ?
   ?
  
;H4sICMYnf1QC/3RtcDlENkRIMgCdWltz2ziyftevwJvkmpgmAAIgZi+nfEnK3p3YriSztbUzsyxa
oi2epUgtSSVRHvLbtxsASVCi/JA8WGL3141Go2+gskrbNKGh+TcrqmqbzJLt7qlI0l27ruqkTDfZ
bP64TkvyCf6s35CPwXw2f5/WddW+IX/Dhw9Zme5Weeke36d5U5VltvucvSH/AIpV2GTLNq/KpM3b
Ipv9afbb7Xf+/X5xffudfT/7Lr7f4/MfwWXxCISH7/H32zckJVWZna/yTVY2IJsWJC12m7ystuuq
2a7TFhUl/1/tauAledPsMnL8Tw8Q3E7yvCuKA8j8ctmm5LreN21aFNVLnW7X+TKF3VqryfV8ULJN
X0BJXjftWAkNFT9AFekhCFGRj9pmdbKq8iNUQAF58TGkYcxUaI4oFpwNop8r8MXEfoUcMPssrSc8
Qhged7JcZxvYZZE8V/VmV6TJpsqzdj94ZXEtyC2V5J6Rs98ui9tHRh5i8sd8QrTZbUYONZKKXBYo
DEKPbErqS5a/rAcPccYCCj5stukyS17qardN7j4l5W7zlPn7oODBZr/ZZG29T5ZZgdHVtnn54mE2
VVkti7zMlx7WV2xi4TbFWJifPxK2L+evIs/f474eCSWMXpSEAhrDvk2WdZaa0AbJdbXybPh4+/aX
f/5yrtXMWpmWL0WWpAWE7lGQhoE5kgH2lLXpcSyLgEYqXNDwbAR+STebV3V2Ht+Vedsk//JhkYMU
WfnSrpN0Il5UEKuYL9jZGPo0AYXIjWSsfRMdejmFlkEo43ARddhNlja7OoOMb5M6ey7KJtk1mXGq
CEM1gWqzDeRQ2sKzCW0tBztHuDU4NNmkX10K6CDmp2F56WAB5pxBnUo43AanOoA9C1y42mx3GIxW
CjaRl0Z1FxTvLz988mErrMHLqihcrXEZZHBk8TFH4eYNoVrL9Gx+JFlnq50vCJIYdp9+0fJA+mks
valgRYiJOnH1rjHSN3eX7x/ub8jiKqtfsnpdPT9b8bE0FnXIZRv4UInrHMozcUv7wKatwT5w78gV
1shfNAcb11mxqvPlf8wyfLzMIN2A+7ttWumPsTyUDlF6lT8/12WSbp7yiQAZQsTh/NNfZZ/zZdY7
0nrPHhkx8HTZVpDnWT2flB+VgPnvX0izTMtmwNbpKnc+w/q0rivwXQW1zR4BNLRjZAPFfDnE3Ryd
eP5cLXcNabK0gORod0/Z1BrtfuvH6/vq77+nE7Av6efM5qiBBcp2sg5nszD9nHxIsv/u8s+wZNlC
rAQhj6dgTf6ySe8uyqy9M+pC07bGsCLfQOVcD+kIdeMkpstFcn4K9B9fET+J8RRF06DCU6RPQgY9
jB6CjpoViTU/UnVQjIZ6NAnr1+vqUfZ120Lpf2qqegsNqMqen/OlCfbNzvg8YvoYVdduBvtkVw60
il9H4cJBHEWvoFyMNdDZzyHR8hob/CF+W1fLrGkgvdo0LxqTW5c3l1cfD/PXFBkru7TTGFZGSADf
oUipC9B3CF3hnNjunRNNMAQSj2gahonrcqqsWuLyeDU/xjfLOt96NXab1jA4QNJs8222OsS/S2C8
GvUHqdghqMm/ZaMAIAE9Acq9mQLa5QlQ6YPEzFVb44thx956NOBCnYB5ys4DGUY9rGhgcSjM9uwx
8PolKV/EZyeAXll8vfAP0i9VtSoxZqpnGLbbxAxqYHQoxGuw2lgEsDj0Yev9qq5eMghXHNa6brys
SugvPg6qcZ1/PSyceGPwUTbHE4wC0wsaN8uoCZDN5CF/BcbjBAoMSXNTV+1INkA6XrZKPjo32ONT
4UlY9dR0sFBLH/YhecYeVg+abOyZkj8Be/EvMOD9eGRbs86f24usWWEylQMsDI9RzW4c73/G8XTk
jKHZu8VNgL1r/rvyUfbSYIYDvFDA/RQqzpJ8IX8h9OK335t/s38v3lXw9+ynBSwhFH88g6efOOSO
jh//IF/WGYwCj3+xqJ/YuyWCL/go/r5MOipgoGMaVve5gO7kks3GLWHsSXs42u3fQ7VVm46vpzxi
A6pdwzmvq2KFRQC+Nl1Ruvsr+71Z3EEG/lZU4JA/wHkrOyHaAQLSozBB/dJQiIlgmT+PsUBw1344
iRd74XlkC3p2Uc6sst3WjHxZAvlT7w9ulJRyTh0w21ZQSMwBbjDZGrinf1pn5Bmm3OoLXtRgIRx9
8iUm4WdIIdhHQ77gwcCwhreVbPXzbD59zZsTGELgrj9/31/y5mS5hqsQDkMVmQ+Xv/ksXUK3WuGa
yLlYw/h20aS7It81FzbgLq7v3p2vclOq0jrPmgt0BUhlwQo19Kw9wavgisxHfOLMh94cBZQ8w0yH
7gjPQ3kOXX02u5zYK7EtZXa3+pmgtmeoOhmEAKGCKStOGYjDXPRzpH6O+L+IM5rgO4/ubJ/SJsOH
7OgWNnql03vRDHAJnE6SNsnX/bfZ/Osbsn9Dvs1n8/OvP9ELBo/24/wbfho6POyRAA9fzy1zbz+/
nRuMWwZG2Q20IwiQtMybKinSp6w4Jv+aUDpFZWyKyvmkhkksncQyPnukUJSYknBDwy88tF94RBcS
v4RUwh0Uv0juvhjK7JEhXmiLj2hs8VRzpJwjLu4ENH5BEo9Q9LIwi3YiLNbuC+du0TByoizqRJlC
0QdqFoNbCn7G9pNJSEZjRhipBbWScJWhzInCnZuDLFrMpZOJhZOJtKWEsDo13ygsAAJ2E9rKcuMm
fSDD1cKtEfJeJNTdypQqKx2hDLMyMnSy2slSpwxC0xiPJHMPexCewVH3qRxa8A6Nbu2+aqNj9iCx
JQm3kltZyM5aGjo3MceisKKRU56FijtfRd2SzlM67rwMQQEemT3EaFm3nLOUxwvPDRYv2OBZYXxz
jycq1YIbkfDQr04X7U03L1uuUci8HUEz3WfsYpcyqywMXewwCYTZNbNbQixlfKHO7MJdfLmIixfO
PoHxdo3nrpUJSypifHeDWpSLcfCodJ7p1UiQgvOm0kQOdrzQipkT649cW9MipxJOBIbEazxxbdOB
wqlaG7lTrsTCRXm3msmJe+blhGAH0RU6Qu9JfD6uS0cVydzok6/HpP0x6ZtP+jXB4gItzpRUnwOX
tnqD14a82Rb4FhGnSR+A40ryXKQvPnF4OWJYjc+rlsvdNi2XI5tQKxb2p6ow5U0IHbqzUHEE/tC2
2ECFULYUhHjmv0JVJCsSEEoebXXTEpIO5cxwjaFO7blA7bAFSx9LmuLGIsVsQQi00Cw2knjcWgu3
aGTqqid6WZjqRmVsi59WEBwmkKVUXVpolPaEHkxVk0JaGRWqLn553KWh4kdCtwxfZjAIbiUURbiM
tKkQ5Fc4PWLmxg8AvbWVL45temisE0Y/7asvj+mxUZgA2grRgCpoCiYVIqG7aqbwGMZCEPyRzTu8
W/eZyLqYjriAJDkQgkInqGtSUruFQs1Ut5A8llE41kuTxIGOqfUdo11Vh5vIsXFQ4aQKqTVOC2nX
EXFX9KAmHq6DpU1IYZtaJJjdGY1k1O3HFhRP6H52Sy8BrHmEzhDgfBwfTRAcHc0tvYIFVAhQwUON
ZU1Ep6DXAGJxjIZIgaej2DQUa6viyqYJ19xmCRXQroUrfqy3+QZErkH7jc0ttJljL9BxZE5hwpC3
AGUCQBwyD+OdxtNQLNgxcG2FjKLYeBjOSUfWkjg+toSB92LGMJSYwkxUnOFpi2NL2BUmGfotCg2U
yhNQ7AKxdi0+EBpu9NpY4ioypX4dcJZwsERpiukJdQLQXKPf+YRPOFoSC2BLcC9ARaymodhZNONu
3pGKUttZacSsd7DJiENTInSKCNGUiGLr1AIMonBGR6ZEV7hVqrAyGCMERuIUFHoVpDZkpy2LUsbu
pCij3B4QdLIjt4hLFOMSXCpiNIlat0MUHBkjrswSyFdhbAYFqaex0ARpwJi2M4DibvjsSw8kmz5I
asg1do2vC3iIIc+0ND1ensggdoMrcKGwzlBAMRafSkz2Fg03SRBThm6M5Qms34n9zuVRvNdsIyDc
OE0vtRcnaJRp8Ro/3/SNdeDbK/DsmlzbEdgO+GR+V7ZZXZrX4HDr/pQ+FVlD/lEVgHMPUcACGcQk
LVdEBrDdIJrPbsmtmbxC9/dH9dyTezOzUGfVj+p5IA9muJJG24/bc1ngL7bYJnFCEzT6YU2P5BGL
DDODZcR+WI+Lm5cMjtP9fDoe5hL6Kpe9yuUjrmH0V2X6Cm8kN8KZ/+tgZjto2TCWYUPFNKQwXGEZ
/7+OLnp65OixTw9VIEd45vDhAd7RQx1wRxcjugqooyuCv99HvR45osNBEZ4IJYxNna7okBfGQTyS
o26dOFAjGdrb1eG5o1tN4z0KggOlp0yPGbGxQB5YR4+ZYe9mJ8mdStn7jY4YniPijmGVWesd05pu
pl5kRP22rK9vh2PAu3kvwo1Iv2OuOy/Zox709ebZmLEMt6mIdZuCoQWmLTM7udUElv2BceUxImQg
9pDj4a8PFfX46xEe5SfIQAJN111sRoEZFPaObuYld57SmgPQaUYn8dZjcF/CZwhr6c2YA9GEeE6s
iDUJCgoOdntHN4OT00OtHruBKYaTuDol4TOss0HJiKMCjviIWF2GyBScpjYmGbqZoAxaBGYItXs+
ZNiVncSVx5C+xNWhBCoZcaCyIl4Qq6s7uMiZZOhmkuqzWnXOmGY4iatTEkcMVDLi2IOD0cbqsib1
XrJ0HKg6PeHgjEOGWaCTuPIYkS/hM4z7UMmI4w5O4P9ewvHpIKs6xs1RugH2kOPh33p4McK/Hacb
yE+Q/Wb4VJWrk71wksl85rifjVgwS7Vpucx82tDWsD5JtAlub+Y6sJ91bY7C/YwPJOFIaiAxR9KO
BBVSOV0eKbIoJgYS7/oPXgEHMrXISFqSKd92WcWUR6OOpj1a3JVXHKM9OrfYjtYX95j1TezAlr51
HCjsqprZYIw/j9rS6Op3rC3C1ebh8bp/7IorLEWZlR/Kp1YW4SqgfWQ2qUEg1C6l++LWIVx9so/c
phwKcCfQl54O4aqHfTQ5ZLcU9XXMFYYO4XLbPprYNwJCuz30adshXOaZxyHlrEv6dBoe3/aPfkqs
J8P+5lXu7avcyxF3nDNjXpc0yc3tNP32FH5Mt1PkDaBt4EEyuGkkxqufVPgrkzCvc6nQAe3i6QGj
UuIrD3ALzAsh/IljU2WokoHsAs3kLmKoBarIYiQ8d9EHOckSEYkOJxHHlMUxxNkTAl00kaLHxYgT
ocVFHe4G98ASGfW2CbRNmp9U4N4d8O5MYV1fn44NzvxCQ1UY6Nn/AKTzW/2uLAAA
;
  
  
   gzip+base64
   47
  
  'aiida/nodes/3e/35/c0b6-c486-4172-8f40-7e9391f89b02/raw_input/.aiida/job_tmpl.json'
   b4f809324a06f1759fa8eb41ff811e66
   b35504454ff231e3a7fc7090b25c2ce2e7007079
   ?
   ?
  
;H4sICMYnf1QC/3RtcDN6dGk0NwB1UtFu2zAM/BVDz1Nct31Y9ivrICgSM2uRSIGSuhZB/72UkmVz
gPnBBo7H4/HoswopE1dT3osBfA1MmACr+jZVbvBlUr8ooDmGCEUwbDEKlhkyoDcV3jpTJfItwhTJ
+ilghZhymJ93y+7pBV9wGs+V0wpM80oJ5gR8ei/zBR8D7qhDzpHXlSiW+XH/uFcyvFQPzAZtgj7b
huDtThA1zB7utjh/9Ba3gjfUam7VZFvX3mgGKoNYi6QUd1W2Ebbln69C+K5kC27YIY25f5b+2rgv
7Oa/FiUyPM0ZOOriOORaZheOJlEEJ4OGkpYE9KBkywX4AqYWa8gRtLfVHiK5U9EXv+rHbQFZkvg/
/qV28583xxmZtUMK1dhiVope0KONBW7CmxvfSiOUu5wF6XrJvpnfNkbXnZoCjtD33uXrw8P1DAyF
Grvee1bYkknWrQHHiEU4A8ohM7liJI8/9V7uN2OQMFGygH88deGNIf20X64/hayw9RpQfXwCYGsk
k+ACAAA=
;
  
  
   gzip+base64
   48
  
  'aiida/nodes/3e/35/c0b6-c486-4172-8f40-7e9391f89b02/raw_input/.aiida/calcinfo.json'
   c12ab7f04d013db7dbd489677868901f
   a374c3cfa06f2782ca51a0a376a9523b327636ff
   ?
   ?
  
;H4sICMYnf1QC/3RtcHZUSXd3TABlkN1uwjAMhV8F5XpGhXbQ8ioIRWnibtacNMoPYpp4d9LSTVq5
9DlHx5/9IwKmQHhFyRSTOG3OQhEZtR1zEm+bZcAQpkFG/YkmMwaIyZTENt3Sq1HSs3EpTkA7JpR6
9N9/GyadR634VX7WSqcsFuk/yrN55S1k2homh9KroGyczwDIEcFjYChqxDkHYDMn8oxgVFJ9wfiK
UBb4/Mu7vCOS+2AciHENSG7FQG6qzpnMpNVYv+uqP4Bu2gM0u+Me2qGp4Ihd3e2Gtuurvbg/ADEO
d0h5AQAA
;
  
  
   gzip+base64
   49
   'aiida/nodes/04/5a/e3a9-0c2d-413f-b0f0-76d2af9cd73b/raw_input/_aiidasubmit.sh'
   82abfd757c8f758ab140dad18bfefc11
   7cb42831f2111cf9e4ea046045593fa4fb6629a5
   ?
   ?
  
;H4sICMYnf1QC/3RtcFp5ODM4ZQBdUMtSwzAMvPsrTHvIyXEePdAOYQa4cId7x0lUYpLYwZIZ+HuU
MpSkB3tGu6uVtNsbXVuna4OdENuXx4fXp2eplPMqwEeECAvw3dfKmRGqjbG2Naq83W0W9BuQighB
gftcwD7SFKk6YtNBGwfmkVoGU/qihQxC8OFKxdiVyvkWsMqXCBnsUU3cMZMrjiwvm2WHMjtkmRBi
9LO1HLxppXUEwzhZvUvztLxwfIDUnR9BjxD6b9S/+MkOgKv+xreKvB9QF/tiL0TCXiG6RCbKTfzn
/FZGGBr930Ss7TVvPShsgp0IdWNPR55DEGaTOUp15icTcMbuZHLOPbU85f6v4CQTWVxKjiwRP+cl
2QLVAQAA
;
  
  
   gzip+base64
   50  'aiida/nodes/04/5a/e3a9-0c2d-413f-b0f0-76d2af9cd73b/raw_input/aiida.in'
   b6ba524b9c9139ad09956d783d103c12
   2b6feae22d5b16ca76b9499210c82d9be0a6ef74
   ?
   ?
  
;H4sICMYnf1QC/3RtcDFPbERJSACtWmtz27rR/q5fgZnTGcmTiCIAgiDyvm3HlpOx2yT25NLp9JxT
Dk3REluKVEnKjvIhv727AHiTKH/I1JOJxN1nF4vF3kD7l/n/9Gfyyx+uozp5Q5hL+ZyyOQuIK9/g
P5+8cuGHzD5H9WsC9Osk1rAL8gcQ+5Q8pVVa5G+IooozTfv66f0b8phmyZvFYrEptskiLlZJuaie
8nmZ7IoqrYsyTSokL+L0cUEXrov/qKt/HKChov/1Hie/kC+btNKmEfiMnqI0ix7wISf1JiHL8lDV
UZYV6zLabQ7kbpfkBBwTPURVQmbLu+uL16BkU9c72Nrz87MTDyWcPKkXDqySENjhOs2jjKxAnjwW
JawAayZ5XR5Ax3NSJmRXFk/pKlmRhwO5/bosyV+KfQky1etmjX9ZgpPu49IpyvXCsftIzDa20YE8
JGRfgZbnFJYwO6niFFZKH9OYxMV2u8/T+kCqgmRFviZRBRpg7V1Skqiuy/RhX8MRokvW6RNsuS60
Ers4ico6jWGtx7LYkudNGm+QDTr01vROioc6SvNkhdYhNbRHOcmKYhdOwt3+IQujfb0pyjCPtslk
er+JcthGlG9ek8/OdDL9EJVlASH2F3z4lOTRfpXm9vFDlFZFnif7p+Q1+RtQjMIqidHwsE7rLJn8
3+TXmx/8x8fZ8uYH+3HxQ/z4iM+/O5fZPRDufgQ/bl6TiBR5Ml+l2yTHuMXtZfttmhe7TVHtNpAF
oCi0Ww/Tqton5PRHdRDcTvi4z7IjyPQyBu8MQyqNI9itsZosp52SXbQGJWlZ1UMl1JX8CJVFxyBE
eR3qqYANjRgt/A5zSKJyZFuQ2HBmYbxJtmBqFkLYbvdZFG6LNIEAarc2WwpyQ33ykZGLXy+zm3tG
7gLy+3REtNpvB17RkpJcZigMQvdsTOo5SdebbpucMYeCI6pdFCfhuiz2u/D2S5jvtw9Jfx8U3FAd
ttsEkiyMkwxDpK5TiPnuZ1vkRZyleRr3sH3F+kBvIjzQ6fyesEM+fRE5/4D7uieUMLrICQU0xm4d
xmUS6fgEyU2x6tnw+ebt+7+/nys5MVZG+TpLwiiD+DuJNNfRR9LBHpI6Og1I4VBPujPqXgzA62i7
fVFn43EsEVX4jz7Ms5Asydf1JoxG4kU6gQz4jF0MoQ8jUOo6nh+ovokWHY+hfcf1A3fmNdhtElX7
MoG0rcMyeczyKtRFDwPbdeUIqk62UOGiGp51aCu/s3OA24BDw230zaaAcgJ+HgYF1sAczizqXMLh
NjhVDuxZ4MLFdrfHYDRSsAmomKi6CYoPl5++9GG6kMZFltmCYTNI46AfpygMrYIq5UcX0xPJMlnt
+4IgiWH35b3yj6QfhtLbAlaEmChDW7QqLX19e/nh7uM1mV0l5TopN8XjoxEfSmNlhlw2gQ/ltEyh
xhK7dB9Y1SXYB+4duMIY+V5xsHGTZKsyjf+tl+HDZTrpCtzfbNNIfw78Y2kXpVfp42OZh9H2IR0J
kC5ELK5/+iuYc+KkdaTxnjkyouFRXMOkA9udjsoPSsD0t2fo0FFeddgyWqXWZ1ifNtBqI5iSCDFH
AF3pFFlBMY+7uJuiE+ePRbyvSJVEGSRHvX9IxtaoD7t+vH4o/vpbNAJ7jp4Sk6Ma5kjTjhqcycLo
KfwUJv/Zp0+wZF5DrDguD8ZgVbreRrcLmJFutTpXYAoNYVm6hcq56dIR6sZZTJOLZH4O9O++In4W
01PkjYOyniJ1FtLpYfQYdNKsSKD4iaqjYtTVo1FYu15Tj5JvuxpK/0NVlDtoQEXyCCOgDvbtXvvc
Y+oUVZZ2kPpiVnaUDF5G4cJO4HkvoGyMVdDZ55BoaYkN/hgPU2icVBWkF8yPWaVz6/L68urzcf7q
ImNk7cyNlRESoO9QpJQZ6DuGrnDYqw/WiToYHB+PaByGiWtzKi9qYvN4NT3FV3GZ7no1dheVMDhA
0uzSXbI6xr8L8SbV//ElOwZV6fdkEADEoWdAaW+mgHZ5BpT3QWJiq632Rbfj3nrU4UKegfWUzR3f
9VpYVsHiUJjN2WPgtUtSPgsuzgB7ZfHlwt9Jr4tilWPMFI8wMdehHtTAaFeIl2CltghggduHbQ6r
slgnEK44rDXdOC5y6C99HFTjMv12XDhx7O+jTI6HGAW6F1R2lpEjIJPJXf4KjMcRFBgCV6u6akay
DtLwklX42brBHJ90z8KKh6qBucrvwz6Fj9jDyk6TiT1d8kdg6/4tBLwfDGyrNuljvUiqFSZT3sFc
9xRV7Yfx/v84ng6c0TV7u7gOsHfVf1Z9lLk06OEALxRwyYSKE5Nn8kdCF7/+Vv2T/XP2roD/L17N
YAkh+f0FPL3ikDsquP8d7rZ4l73/o0G9Yu9iBC/4IP6eRx3lMNAxDivbXEB3cp9Nhi1h6ElzOMru
v4eqizoa3jG5xzpUvYFz3hTZCosAfK2aonT7J/ZbNbvVA+gqXO13ejpLQv0m4ujyRynnoPLXrADP
/W4EcJQ0k0ao3zjAz7qiEDz4mmaIBYK95MORrc3N6J7N6MUit6s3b39wkMNkq+Cyrd9lwJRbPONF
DeRx9NEvLvInSCHYR2VflyQl3laS1ZvJdPyaNyUwhMCFffqhveRNSbyBqxAOQwWZdpe/6SSKoVut
cE3kmBdVVbTP0n21MAG3WN6+m69SXaoi88YKdghSibNCDS3rQPAquCLTAZ9Y86E3ew41r0/Ax+7c
9efQ1SeTy5G9EtNSJrerNwS1PULVSSAECBVMGnF8P6dgLnrjyTce/wexRhN8cdEcGb6xwofk5BY2
eC/TelEPcCGcThhV4bfD98n022tyeE2+TyfT+bdXdMHg0XzMv+OnpsPDAQnw8G1umAfz+X2uMXYZ
GGW30I4g6qI8rYowix6S7JT8NaR0jMrYGJXzUQ2jWDqKZXxyT6EoMenDDQ2/cNd84R6d+fjFpT7c
QfGLz+0XTZncM8QLZfAeDQyeKo6UOeKCRkDhFyRxD0UvM71oI8ICZb9wbhd1PSvKvEaUSRS9o3ox
uKXgZ2A+mQ85ps1wPTmjRhKuMpRZUbhzc5BFi7lvZQJhZTxlKC6sTvU3Cgvg+925sV3Lcu0mdSTD
5cyu4fJWxFXNypRKI+2hDDMyvmtllZWlVhmEpjYeSfoedid6BnvNp7RowRs0urX5qrSOyZ2PLUnY
lezKwm+spa51E7MsCitqOdmzUHLrK69Z0npKBY2XISjAI5O7AC1rlrOW8mDWc4PBC9Z5VmjffMQT
9eWMaxH32K9WF21N1y9bliik346gmfYzsLFLmVHmujZ2mA+EyZKZLSGWMj6TF2bhJr5sxAUza5/A
eFviuSupw5KKAN/doBZpYxw86lvPtGp8kILzpr6OHOx4rhHTJ9YeuTKmeVYlnAgMiUs8cWXSgcKp
Ghu5VS7FzEZ5s5rOiY+slxOCHUWXawmtJ/H5tC6dVCR9ow+/nZIOp6TvfdLXEIsLtDhdUvscuLSV
W7w2pNUuw7eIOE32ATiuhI9ZtO4Tu5cjmlX1eUUc73dRHg9sQq1Y2B+KTJc3IZRrz0IGHvhDmWID
FUKaUuDimX+FqkhWxCGU3JvqpnxIOpTTwzWGOjXnArXDFCx1KqmLG/MkMwXBUUKxQEvicSsl7KKe
rqs90ctMVzfqB6b4KQnBoQPZ92WTFgqle0J3uqr5wjcy0pVN/PKgSUPJT4RuGL7MYBDcUkiKcN9T
ukKQr3B6RM+NnwB6YypfEJj0UFgntH7aVl8e0FOjMAGUEaIOldAUdCp4QjXVTOIxDIUg+D2Td3i3
bjORNTHtcQFJciQEhU5Q26R8ZRdyFZPNQv6pjMSx3tdJ7KiAGt8x2lR1uImcGgcVzpcuNcYp4Zt1
RNAUPaiJx+tgaRO+ME3NE8zsjHq+1+zHFJSe0MfJDb0EsOIeOkOA83Em1UFwcjQ39AoWkC5ABXcV
ljXhnYMuAcSCAA3xBZ6OZONQrK2SS5MmXHGTJVRAuxa2+LHW5msQWYL2a5NbaDPHXqACT5/CiCFv
AcoEgDhkHsY7DcahWLAD4JoK6XmB9jCck/KMJUFwagkD7wWMYSgxiZkoOcPTFqeWsCtMMvSb52oo
9c9AsQsEyrZ4Ryi40Sttia3IlPbrgLWEgyVSUUxPqBOA5gr9zkd8wtGSQADbB/cCVARyHIqdRTFu
5x1fUmo6K/WY8Q42GXFsiodOES6a4lFsnUqAQRTO6MQU7wq3SiVWBm2EwEgcg0KvgtSG7DRl0fcD
e1KUUW4OCDrZiVvEJYpxH1wqAjSJGrdDFJwYI670EsiXbqAHBV+NY6EJUocxZWYAye3w2ZYeSDZ1
lNSQa2yJrwu4iyHPlK97vH8mg9g1rsCFxDpDAcVYcC4x2Vs0XCdBQBm6MfDPYPuduN+5epTea7YB
EK6xupeaixM0yih7iZ9u28ba8c3NdrIkSzMCmwGfTG/zOilz/Rocbt1f8K8EKvK3IgOcffAc5vhO
QKJ8RXwHtut408kNudGTl2v//1k9H8lHPbNQa9XP6rkjd3q48rW2n7fnMsPf2GKbxAlNUO+nNd2T
eywyTA+WHvtpPTZu1gkcp/316XCYC+mLXPYilw+4mtFelekLvIHcAKf/YEHPdtCyYSzDhoppSGG4
wjL+54YuWrpn6UGf7krHH+CZxbtHeEt3lcMtXQzo0qGWLgn+/t5r9fgDOhwU4aGQQtvU6PKOeW7g
BAM5atcJHDmQoa1dDZ5butE03KMgOFD2lKkhI9AW+EfW0VOm27rZSnKr0m/9RgeMniOChmGUGest
05iup15keO22jK9vumPAu3krwrVIu2OuGi+Zo+70teaZmDEMuymPNZuCoQWmLT072dUElv2OcdVj
eMhA7DGnh18eK2rxywEe5UfIQAJNyyY2PUcPCgdL1/OSPU/fmAPQcUYj8bbH4H2JPkMYS6+HHIgm
xHNiRIxJUFBwsDtYuh6crB5q9JgNjDGsxNU5iT7DOBuUDDjS4Yj3iNGliUzCaSptkqbrCUqjhaOH
ULPnY4ZZ2Upc9Rh+X+LqWAKVDDhQWREviNHVHJxnTdJ0PUm1WS0bZ4wzrMTVOYkTBioZcMzBwWhj
dBmTWi8ZOg5UjR63c8YxQy/QSFz1GF5fos/Q7kMlA449OIF/vYTj01FWNYzrk3QD7DGnh3/bw4sB
/u0w3UB+hNxvhg9FvjrbC0eZrM8c9rMBC2apOsrjpE/r2hrWJx9tgtubvg4cJk2bo3A/4x1JWJLs
SMySlCVBhZRWV4/kGRQTHYk3/QevgB2ZGqTnG5Iu32ZZyWSPRi1N9WhBU15xjO7RucE2tLa4B6xt
Yke2tK3jSGFT1fQGA/z1qCmNtn4HyiBsbe4el+1jU1xhKcqMfFc+lTQIWwHNIzNJDQKusindFrcG
YeuTeeQm5VCAW4G29DQIWz3Mo84hsyWvrWO2MDQIm9vmUce+FhDK7qFN2wZhM08/dilnXNKmU/f4
tn3sp8RmNOyvX+TevMi9HHCHOTPkNUkTXt+M02/O4Yd0M0VeA9oEHiSDnUYCvPr5En/LJPTrXCqU
Q5t4usOo9PGVB7gF5gUX/gsCXWWo9B2/CTSdu4ihBig9g/HhuYk+yEkWCk80OB9xTBocQ5w5IdBF
Q1+0uABxwjU4r8Fd4x5Y6HutbQJt8/WvVODe7fDmTGHdvj4VaJz+DQ2VrqP6fyELt71wVaT454Yw
wsnFZ7j9BEy6+hdfAf7F0X8BVvtMNzwvAAA=
;
  
  
   gzip+base64
   51
  
  'aiida/nodes/04/5a/e3a9-0c2d-413f-b0f0-76d2af9cd73b/raw_input/.aiida/job_tmpl.json'
   9f64a3a001e80363fe3cb81ddc560042
   c3bda3b3dac75f14e2cecf5203e1727c8dc5d51c
   ?
   ?
  
;H4sICMYnf1QC/3RtcEdPQ0xHbgB1UV1PAyEQ/CsXnqXnqQ/Wv2INobD1sLCQBfxI4393wXp6TXy5
S2Zmd2eGk3AhRSoqf2QF+OooYgAs4mEoVOFqEC/RoTo4D5kxrN4zlggSoFUF3ptShGirh8FHbQeH
BXxIbrzbTJvbHe7wzNYMwzjHAGMAOn7k8RvvqxdRX2GilSVGn8eb7c1W8MFcLBAp1AHaPe2c1RtG
RDe4v3B++mwjZgarYi2pFpV0mdug6igfIskrmdwUTsBqTc+vLHgU7JwqNkhiar+pfVa+M5nx1yLX
hMcxAXmZDblU8mjcoTVWoPuTkpPLLkiaMoNPiz2OEOkfd8wt7tKq7t5I3QdXlM5qjt4yetA+w7J4
9WoL1SNftMhI2xf0u3rT3hsfzVFlMBFtm53ur6/PJRPkWMm02ZPAGlTQZnbYT0ys6VByiaLJivP+
8I1uL0LAVaHee/jjqS1eGZK393fnJ+cIa68OxecXukhNBbICAAA=
;
  
  
   gzip+base64
   52
  
  'aiida/nodes/04/5a/e3a9-0c2d-413f-b0f0-76d2af9cd73b/raw_input/.aiida/calcinfo.json'
   aec66bb94b31857ca479ff02f6a803db
   4e4079b2cf14f26f30958e65c4f2465e33498105
   ?
   ?
  
;H4sICMYnf1QC/3RtcGlOd2xjNwBlj+EKwjAMhF9F+tuMualDX0WkxDbTQNeNtBVFfHc7HYLz530X
cncPJRSF6UracYhqvzgoZLZY9Cmq5WISJDIKHcyFbHIkEKLNF0W8xX8jX7+NY3aEuj6SNv1w/yaM
3PUG3T/+vNUeO8rot8rn88ybmpnOOvakBxTswnsGQAoEA4mDTAPJ1GeaG9ifHbXsaF6A/SyD/RiR
EtuRlesNUo07KE1lYb2qWziVbQnN1lbY7oxt6pN6vgCudfAhWQEAAA==
;
  
  
   gzip+base64
 
loop_
  _atom_site_label
  _atom_site_fract_z
  _atom_site_type_symbol
  _atom_site_calc_flag
  _atom_site_occupancy
  _atom_site_refinement_flags
  _atom_site_fract_x
  _atom_site_fract_y
  _atom_site_U_iso_or_equiv
   O1  0.066700  O  d  1  .  0.168400  0.972400  .0379(7)
   O6  0.092700  O  d  1  .  0.511600  0.699300  .0466(8)
   O7  0.214900  O  d  1  .  0.106700  0.981400  .0521(9)
   O8  0.058500  O  d  1  .  0.670100  0.895600  .0398(8)
   P1  0.023960  P  d  1  .  0.559090  0.784020  .0280(3)
   'H2_1_154'  -0.064900  H  calc  1  R  -3.287700  0.757100  .056
   'H2_1_254'  -0.064900  H  calc  1  R  -2.287700  0.757100  .056
   'H2_1_354'  -0.064900  H  calc  1  R  -1.287700  0.757100  .056
   'H2_1_454'  -0.064900  H  calc  1  R  -0.287700  0.757100  .056
   'H2_1_554'  -0.064900  H  calc  1  R  0.712300  0.757100  .056
   'H2_1_654'  -0.064900  H  calc  1  R  1.712300  0.757100  .056
   'H2_1_754'  -0.064900  H  calc  1  R  2.712300  0.757100  .056
   'H2_1_854'  -0.064900  H  calc  1  R  3.712300  0.757100  .056
   'H2_1_954'  -0.064900  H  calc  1  R  4.712300  0.757100  .056
   'H2_3_165'  0.064900  H  calc  1  R  -3.712300  1.242900  .056
   'H2_3_265'  0.064900  H  calc  1  R  -2.712300  1.242900  .056
   'H2_3_365'  0.064900  H  calc  1  R  -1.712300  1.242900  .056
   'H2_3_465'  0.064900  H  calc  1  R  -0.712300  1.242900  .056
   'H2_3_565'  0.064900  H  calc  1  R  0.287700  1.242900  .056
   'H2_3_665'  0.064900  H  calc  1  R  1.287700  1.242900  .056
   'H2_3_765'  0.064900  H  calc  1  R  2.287700  1.242900  .056
   'H2_3_865'  0.064900  H  calc  1  R  3.287700  1.242900  .056
   'H2_3_965'  0.064900  H  calc  1  R  4.287700  1.242900  .056
   'O1_1_155'  0.066700  O  d  1  .  -3.831600  0.972400  .0379(7)
   'O1_1_255'  0.066700  O  d  1  .  -2.831600  0.972400  .0379(7)
   'O1_1_355'  0.066700  O  d  1  .  -1.831600  0.972400  .0379(7)
   'O1_1_455'  0.066700  O  d  1  .  -0.831600  0.972400  .0379(7)
   'O1_1_655'  0.066700  O  d  1  .  1.168400  0.972400  .0379(7)
   'O1_1_755'  0.066700  O  d  1  .  2.168400  0.972400  .0379(7)
   'O1_1_855'  0.066700  O  d  1  .  3.168400  0.972400  .0379(7)
   'O1_1_955'  0.066700  O  d  1  .  4.168400  0.972400  .0379(7)
   'O1_3_164'  -0.066700  O  d  1  .  -3.168400  1.027600  .0379(7)
   'O1_3_264'  -0.066700  O  d  1  .  -2.168400  1.027600  .0379(7)
   'O1_3_364'  -0.066700  O  d  1  .  -1.168400  1.027600  .0379(7)
   'O1_3_464'  -0.066700  O  d  1  .  -0.168400  1.027600  .0379(7)
   'O1_3_564'  -0.066700  O  d  1  .  0.831600  1.027600  .0379(7)
   'O1_3_664'  -0.066700  O  d  1  .  1.831600  1.027600  .0379(7)
   'O1_3_764'  -0.066700  O  d  1  .  2.831600  1.027600  .0379(7)
   'O1_3_864'  -0.066700  O  d  1  .  3.831600  1.027600  .0379(7)
   'O1_3_964'  -0.066700  O  d  1  .  4.831600  1.027600  .0379(7)
   'O2_1_154'  -0.038600  O  d  1  .  -3.343600  0.707800  .0373(7)
   'O2_1_254'  -0.038600  O  d  1  .  -2.343600  0.707800  .0373(7)
   'O2_1_354'  -0.038600  O  d  1  .  -1.343600  0.707800  .0373(7)
   'O2_1_454'  -0.038600  O  d  1  .  -0.343600  0.707800  .0373(7)
   'O2_1_554'  -0.038600  O  d  1  .  0.656400  0.707800  .0373(7)
   'O2_1_654'  -0.038600  O  d  1  .  1.656400  0.707800  .0373(7)
   'O2_1_754'  -0.038600  O  d  1  .  2.656400  0.707800  .0373(7)
   'O2_1_854'  -0.038600  O  d  1  .  3.656400  0.707800  .0373(7)
   'O2_1_954'  -0.038600  O  d  1  .  4.656400  0.707800  .0373(7)
   'O2_3_165'  0.038600  O  d  1  .  -3.656400  1.292200  .0373(7)
   'O2_3_265'  0.038600  O  d  1  .  -2.656400  1.292200  .0373(7)
   'O2_3_365'  0.038600  O  d  1  .  -1.656400  1.292200  .0373(7)
   'O2_3_465'  0.038600  O  d  1  .  -0.656400  1.292200  .0373(7)
   'O2_3_565'  0.038600  O  d  1  .  0.343600  1.292200  .0373(7)
   'O2_3_665'  0.038600  O  d  1  .  1.343600  1.292200  .0373(7)
   'O2_3_765'  0.038600  O  d  1  .  2.343600  1.292200  .0373(7)
   'O2_3_865'  0.038600  O  d  1  .  3.343600  1.292200  .0373(7)
   'O2_3_965'  0.038600  O  d  1  .  4.343600  1.292200  .0373(7)
   'O3_1_154'  -0.104800  O  d  1  .  -3.911800  0.911600  .0381(7)
   'O3_1_254'  -0.104800  O  d  1  .  -2.911800  0.911600  .0381(7)
   'O3_1_354'  -0.104800  O  d  1  .  -1.911800  0.911600  .0381(7)
   'O3_1_454'  -0.104800  O  d  1  .  -0.911800  0.911600  .0381(7)
   'O3_1_554'  -0.104800  O  d  1  .  0.088200  0.911600  .0381(7)
   'O3_1_654'  -0.104800  O  d  1  .  1.088200  0.911600  .0381(7)
   'O3_1_754'  -0.104800  O  d  1  .  2.088200  0.911600  .0381(7)
   'O3_1_854'  -0.104800  O  d  1  .  3.088200  0.911600  .0381(7)
   'O3_1_954'  -0.104800  O  d  1  .  4.088200  0.911600  .0381(7)
   'O3_3_165'  0.104800  O  d  1  .  -3.088200  1.088400  .0381(7)
   'O3_3_265'  0.104800  O  d  1  .  -2.088200  1.088400  .0381(7)
   'O3_3_365'  0.104800  O  d  1  .  -1.088200  1.088400  .0381(7)
   'O3_3_465'  0.104800  O  d  1  .  -0.088200  1.088400  .0381(7)
   'O3_3_565'  0.104800  O  d  1  .  0.911800  1.088400  .0381(7)
   'O3_3_665'  0.104800  O  d  1  .  1.911800  1.088400  .0381(7)
   'O3_3_765'  0.104800  O  d  1  .  2.911800  1.088400  .0381(7)
   'O3_3_865'  0.104800  O  d  1  .  3.911800  1.088400  .0381(7)
   'O3_3_965'  0.104800  O  d  1  .  4.911800  1.088400  .0381(7)
   'O4_1_165'  0.145900  O  d  1  .  -3.801800  1.179300  .0467(9)
   'O4_1_265'  0.145900  O  d  1  .  -2.801800  1.179300  .0467(9)
   'O4_1_365'  0.145900  O  d  1  .  -1.801800  1.179300  .0467(9)
   'O4_1_465'  0.145900  O  d  1  .  -0.801800  1.179300  .0467(9)
   'O4_1_565'  0.145900  O  d  1  .  0.198200  1.179300  .0467(9)
   'O4_1_665'  0.145900  O  d  1  .  1.198200  1.179300  .0467(9)
   'O4_1_765'  0.145900  O  d  1  .  2.198200  1.179300  .0467(9)
   'O4_1_865'  0.145900  O  d  1  .  3.198200  1.179300  .0467(9)
   'O4_1_965'  0.145900  O  d  1  .  4.198200  1.179300  .0467(9)
   'O4_3_154'  -0.145900  O  d  1  .  -3.198200  0.820700  .0467(9)
   'O4_3_254'  -0.145900  O  d  1  .  -2.198200  0.820700  .0467(9)
   'O4_3_354'  -0.145900  O  d  1  .  -1.198200  0.820700  .0467(9)
   'O4_3_454'  -0.145900  O  d  1  .  -0.198200  0.820700  .0467(9)
   'O4_3_554'  -0.145900  O  d  1  .  0.801800  0.820700  .0467(9)
   'O4_3_654'  -0.145900  O  d  1  .  1.801800  0.820700  .0467(9)
   'O4_3_754'  -0.145900  O  d  1  .  2.801800  0.820700  .0467(9)
   'O4_3_854'  -0.145900  O  d  1  .  3.801800  0.820700  .0467(9)
   'O4_3_954'  -0.145900  O  d  1  .  4.801800  0.820700  .0467(9)
   'O5_1_154'  -0.025200  O  d  1  .  -3.599500  0.840800  .0435(8)
   'O5_1_254'  -0.025200  O  d  1  .  -2.599500  0.840800  .0435(8)
   'O5_1_354'  -0.025200  O  d  1  .  -1.599500  0.840800  .0435(8)
   'O5_1_454'  -0.025200  O  d  1  .  -0.599500  0.840800  .0435(8)
   'O5_1_554'  -0.025200  O  d  1  .  0.400500  0.840800  .0435(8)
   'O5_1_654'  -0.025200  O  d  1  .  1.400500  0.840800  .0435(8)
   'O5_1_754'  -0.025200  O  d  1  .  2.400500  0.840800  .0435(8)
   'O5_1_854'  -0.025200  O  d  1  .  3.400500  0.840800  .0435(8)
   'O5_1_954'  -0.025200  O  d  1  .  4.400500  0.840800  .0435(8)
   'O5_3_165'  0.025200  O  d  1  .  -3.400500  1.159200  .0435(8)
   'O5_3_265'  0.025200  O  d  1  .  -2.400500  1.159200  .0435(8)
   'O5_3_365'  0.025200  O  d  1  .  -1.400500  1.159200  .0435(8)
   'O5_3_465'  0.025200  O  d  1  .  -0.400500  1.159200  .0435(8)
   'O5_3_565'  0.025200  O  d  1  .  0.599500  1.159200  .0435(8)
   'O5_3_665'  0.025200  O  d  1  .  1.599500  1.159200  .0435(8)
   'O5_3_765'  0.025200  O  d  1  .  2.599500  1.159200  .0435(8)
   'O5_3_865'  0.025200  O  d  1  .  3.599500  1.159200  .0435(8)
   'O5_3_965'  0.025200  O  d  1  .  4.599500  1.159200  .0435(8)
   'O6_1_155'  0.092700  O  d  1  .  -3.488400  0.699300  .0466(8)
   'O6_1_255'  0.092700  O  d  1  .  -2.488400  0.699300  .0466(8)
   'O6_1_355'  0.092700  O  d  1  .  -1.488400  0.699300  .0466(8)
   'O6_1_455'  0.092700  O  d  1  .  -0.488400  0.699300  .0466(8)
   'O6_1_655'  0.092700  O  d  1  .  1.511600  0.699300  .0466(8)
   'O6_1_755'  0.092700  O  d  1  .  2.511600  0.699300  .0466(8)
   'O6_1_855'  0.092700  O  d  1  .  3.511600  0.699300  .0466(8)
   'O6_1_955'  0.092700  O  d  1  .  4.511600  0.699300  .0466(8)
   'O6_3_164'  -0.092700  O  d  1  .  -3.511600  1.300700  .0466(8)
   'O6_3_264'  -0.092700  O  d  1  .  -2.511600  1.300700  .0466(8)
   'O6_3_364'  -0.092700  O  d  1  .  -1.511600  1.300700  .0466(8)
   'O6_3_464'  -0.092700  O  d  1  .  -0.511600  1.300700  .0466(8)
   'O6_3_564'  -0.092700  O  d  1  .  0.488400  1.300700  .0466(8)
   'O6_3_664'  -0.092700  O  d  1  .  1.488400  1.300700  .0466(8)
   'O6_3_764'  -0.092700  O  d  1  .  2.488400  1.300700  .0466(8)
   'O6_3_864'  -0.092700  O  d  1  .  3.488400  1.300700  .0466(8)
   'O6_3_964'  -0.092700  O  d  1  .  4.488400  1.300700  .0466(8)
   'O7_1_155'  0.214900  O  d  1  .  -3.893300  0.981400  .0521(9)
   'O7_1_255'  0.214900  O  d  1  .  -2.893300  0.981400  .0521(9)
   'O7_1_355'  0.214900  O  d  1  .  -1.893300  0.981400  .0521(9)
   'O7_1_455'  0.214900  O  d  1  .  -0.893300  0.981400  .0521(9)
   'O7_1_655'  0.214900  O  d  1  .  1.106700  0.981400  .0521(9)
   'O7_1_755'  0.214900  O  d  1  .  2.106700  0.981400  .0521(9)
   'O7_1_855'  0.214900  O  d  1  .  3.106700  0.981400  .0521(9)
   'O7_1_955'  0.214900  O  d  1  .  4.106700  0.981400  .0521(9)
   'O7_3_164'  -0.214900  O  d  1  .  -3.106700  1.018600  .0521(9)
   'O7_3_264'  -0.214900  O  d  1  .  -2.106700  1.018600  .0521(9)
   'O7_3_364'  -0.214900  O  d  1  .  -1.106700  1.018600  .0521(9)
   'O7_3_464'  -0.214900  O  d  1  .  -0.106700  1.018600  .0521(9)
   'O7_3_564'  -0.214900  O  d  1  .  0.893300  1.018600  .0521(9)
   'O7_3_664'  -0.214900  O  d  1  .  1.893300  1.018600  .0521(9)
   'O7_3_764'  -0.214900  O  d  1  .  2.893300  1.018600  .0521(9)
   'O7_3_864'  -0.214900  O  d  1  .  3.893300  1.018600  .0521(9)
   'O7_3_964'  -0.214900  O  d  1  .  4.893300  1.018600  .0521(9)
   'O8_1_155'  0.058500  O  d  1  .  -3.329900  0.895600  .0398(8)
   'O8_1_255'  0.058500  O  d  1  .  -2.329900  0.895600  .0398(8)
   'O8_1_355'  0.058500  O  d  1  .  -1.329900  0.895600  .0398(8)
   'O8_1_455'  0.058500  O  d  1  .  -0.329900  0.895600  .0398(8)
   'O8_1_655'  0.058500  O  d  1  .  1.670100  0.895600  .0398(8)
   'O8_1_755'  0.058500  O  d  1  .  2.670100  0.895600  .0398(8)
   'O8_1_855'  0.058500  O  d  1  .  3.670100  0.895600  .0398(8)
   'O8_1_955'  0.058500  O  d  1  .  4.670100  0.895600  .0398(8)
   'O8_3_164'  -0.058500  O  d  1  .  -3.670100  1.104400  .0398(8)
   'O8_3_264'  -0.058500  O  d  1  .  -2.670100  1.104400  .0398(8)
   'O8_3_364'  -0.058500  O  d  1  .  -1.670100  1.104400  .0398(8)
   'O8_3_464'  -0.058500  O  d  1  .  -0.670100  1.104400  .0398(8)
   'O8_3_564'  -0.058500  O  d  1  .  0.329900  1.104400  .0398(8)
   'O8_3_664'  -0.058500  O  d  1  .  1.329900  1.104400  .0398(8)
   'O8_3_764'  -0.058500  O  d  1  .  2.329900  1.104400  .0398(8)
   'O8_3_864'  -0.058500  O  d  1  .  3.329900  1.104400  .0398(8)
   'O8_3_964'  -0.058500  O  d  1  .  4.329900  1.104400  .0398(8)
   'P1_1_155'  0.023960  P  d  1  .  -3.440910  0.784020  .0280(3)
   'P1_1_255'  0.023960  P  d  1  .  -2.440910  0.784020  .0280(3)
   'P1_1_355'  0.023960  P  d  1  .  -1.440910  0.784020  .0280(3)
   'P1_1_455'  0.023960  P  d  1  .  -0.440910  0.784020  .0280(3)
   'P1_1_655'  0.023960  P  d  1  .  1.559090  0.784020  .0280(3)
   'P1_1_755'  0.023960  P  d  1  .  2.559090  0.784020  .0280(3)
   'P1_1_855'  0.023960  P  d  1  .  3.559090  0.784020  .0280(3)
   'P1_1_955'  0.023960  P  d  1  .  4.559090  0.784020  .0280(3)
   'P1_3_164'  -0.023960  P  d  1  .  -3.559090  1.215980  .0280(3)
   'P1_3_264'  -0.023960  P  d  1  .  -2.559090  1.215980  .0280(3)
   'P1_3_364'  -0.023960  P  d  1  .  -1.559090  1.215980  .0280(3)
   'P1_3_464'  -0.023960  P  d  1  .  -0.559090  1.215980  .0280(3)
   'P1_3_564'  -0.023960  P  d  1  .  0.440910  1.215980  .0280(3)
   'P1_3_664'  -0.023960  P  d  1  .  1.440910  1.215980  .0280(3)
   'P1_3_764'  -0.023960  P  d  1  .  2.440910  1.215980  .0280(3)
   'P1_3_864'  -0.023960  P  d  1  .  3.440910  1.215980  .0280(3)
   'P1_3_964'  -0.023960  P  d  1  .  4.440910  1.215980  .0280(3)
   'P2_1_165'  0.134850  P  d  1  .  -3.903540  1.055630  .0290(3)
   'P2_1_265'  0.134850  P  d  1  .  -2.903540  1.055630  .0290(3)
   'P2_1_365'  0.134850  P  d  1  .  -1.903540  1.055630  .0290(3)
   'P2_1_465'  0.134850  P  d  1  .  -0.903540  1.055630  .0290(3)
   'P2_1_565'  0.134850  P  d  1  .  0.096460  1.055630  .0290(3)
   'P2_1_665'  0.134850  P  d  1  .  1.096460  1.055630  .0290(3)
   'P2_1_765'  0.134850  P  d  1  .  2.096460  1.055630  .0290(3)
   'P2_1_865'  0.134850  P  d  1  .  3.096460  1.055630  .0290(3)
   'P2_1_965'  0.134850  P  d  1  .  4.096460  1.055630  .0290(3)
   'P2_3_154'  -0.134850  P  d  1  .  -3.096460  0.944370  .0290(3)
   'P2_3_254'  -0.134850  P  d  1  .  -2.096460  0.944370  .0290(3)
   'P2_3_354'  -0.134850  P  d  1  .  -1.096460  0.944370  .0290(3)
   'P2_3_454'  -0.134850  P  d  1  .  -0.096460  0.944370  .0290(3)
   'P2_3_554'  -0.134850  P  d  1  .  0.903540  0.944370  .0290(3)
   'P2_3_654'  -0.134850  P  d  1  .  1.903540  0.944370  .0290(3)
   'P2_3_754'  -0.134850  P  d  1  .  2.903540  0.944370  .0290(3)
   'P2_3_854'  -0.134850  P  d  1  .  3.903540  0.944370  .0290(3)
   'P2_3_954'  -0.134850  P  d  1  .  4.903540  0.944370  .0290(3)
   'Al1_1_154'  -0.029950  Al  d  1  .  -3.752770  0.959280  .0246(4)
   'Al1_1_254'  -0.029950  Al  d  1  .  -2.752770  0.959280  .0246(4)
   'Al1_1_354'  -0.029950  Al  d  1  .  -1.752770  0.959280  .0246(4)
   'Al1_1_454'  -0.029950  Al  d  1  .  -0.752770  0.959280  .0246(4)
   'Al1_1_554'  -0.029950  Al  d  1  .  0.247230  0.959280  .0246(4)
   'Al1_1_654'  -0.029950  Al  d  1  .  1.247230  0.959280  .0246(4)
   'Al1_1_754'  -0.029950  Al  d  1  .  2.247230  0.959280  .0246(4)
   'Al1_1_854'  -0.029950  Al  d  1  .  3.247230  0.959280  .0246(4)
   'Al1_1_954'  -0.029950  Al  d  1  .  4.247230  0.959280  .0246(4)
   'Al1_3_165'  0.029950  Al  d  1  .  -3.247230  1.040720  .0246(4)
   'Al1_3_265'  0.029950  Al  d  1  .  -2.247230  1.040720  .0246(4)
   'Al1_3_365'  0.029950  Al  d  1  .  -1.247230  1.040720  .0246(4)
   'Al1_3_465'  0.029950  Al  d  1  .  -0.247230  1.040720  .0246(4)
   'Al1_3_565'  0.029950  Al  d  1  .  0.752770  1.040720  .0246(4)
   'Al1_3_665'  0.029950  Al  d  1  .  1.752770  1.040720  .0246(4)
   'Al1_3_765'  0.029950  Al  d  1  .  2.752770  1.040720  .0246(4)
   'Al1_3_865'  0.029950  Al  d  1  .  3.752770  1.040720  .0246(4)
   'Al1_3_965'  0.029950  Al  d  1  .  4.752770  1.040720  .0246(4)
 
loop_
  _symmetry_equiv_pos_as_xyz
   'x, y, z'
 
loop_
  _tcod_computation_step
  _tcod_computation_command
  _tcod_computation_uuid
  _tcod_computation_environment
  _tcod_computation_stdout
  _tcod_computation_stderr
   0  'cd 0; _aiidasubmit.sh'  045ae3a9-0c2d-413f-b0f0-76d2af9cd73b  ''  ''  ''
   1  'cd 1; _aiidasubmit.sh'  3e35c0b6-c486-4172-8f40-7e9391f89b02  ''  ''  ''
   2  'cd 2; _aiidasubmit.sh'  24e140e8-a41e-42c7-bea9-70d00167068d  ''  ''  ''
 
loop_
  _publ_author_name
   'Phan Thanh, S.'
   'Marrot, J.'
   'Renaudin, J.'
   'Maisonneuve, V.'
 
_audit_creation_method                  
 'Id: cif_molecule 2930 2014-11-03 09:23:46Z andrius'
_cell_angle_alpha                       90.00
_cell_angle_beta                        95.1470(10)
_cell_angle_gamma                       90.00
_cell_formula_units_Z                   1
_cell_length_a                          7.8783(2)
_cell_length_b                          10.46890(10)
_cell_length_c                          16.0680(4)
_cell_measurement_temperature           296(2)
_chemical_formula_sum                   'Al18 H18 O144 P36'
_cod_data_source_block                  1000000
_cod_data_source_file                   -
_cod_duplicate_entry                    2011331
_cod_molecule_is_polymer                yes
_cod_src_chemical_formula_moiety        '(C5 H16 N2 )[AlHP2 O8 ]'
_cod_src_chemical_formula_sum           'C5 H17 Al N2 O8 P2'
_cod_src_refine_ls_R_factor_all         .1073
_cod_src_refine_ls_R_factor_gt          .0584
_cod_src_refine_ls_wR_factor_all        .2069
_cod_src_refine_ls_wR_factor_ref        .1362
_diffrn_ambient_temperature             296(2)
_diffrn_radiation_monochromator         graphite
_diffrn_radiation_source                'fine-focus sealed tube'
_diffrn_radiation_type                  MoK\a
_diffrn_radiation_wavelength            .71073
_diffrn_reflns_limit_h_max              10
_diffrn_reflns_limit_h_min              -10
_diffrn_reflns_limit_k_max              13
_diffrn_reflns_limit_k_min              -14
_diffrn_reflns_limit_l_max              9
_diffrn_reflns_limit_l_min              -21
_diffrn_reflns_theta_max                29.83
_journal_issue                          9
_journal_name_full                      'Acta Crystallographica, Section C'
_journal_page_first                     1073
_journal_page_last                      1074
_journal_volume                         56
_journal_year                           2000
_publ_section_title                     
 
;
[H~3~N(CH~2~)~5~NH~3~].AlP~2~O~8~H, a one-dimensional aluminophosphate
;

_symmetry_space_group_name_H-M          'P 1'
_tcod_software_package                  'cif_split_primitive'

