data_A_BA4TA2O9_RT_phase_1
_publ_contact_author_address     ' ?'
_publ_section_title              ' ?'
_publ_section_title_footnote     ' ?'
_journal_coeditor_notes          ' ?'
_journal_techeditor_notes        ' ?'
_chemical_formula_sum            'Ba6 O13.50 Ta3.00'
_chemical_formula_weight         1582.81
_chemical_name_systematic        ' ?'
_symmetry_cell_setting           hexagonal
_symmetry_space_group_name_H-M   'P -6 2 c'
_audit_author_name               'Chris Ling'
_audit_creation_date             2009-08-27T22:46
_audit_creation_method           'from EXP file using GSAS2CIF'
_audit_update_record
' 2009-08-27T22:46  Initial CIF as created by GSAS2CIF'
_cell_angle_alpha                90.0
_cell_angle_beta                 90.0
_cell_angle_gamma                120.0
_cell_formula_units_Z            2
_cell_length_a                   10.26904(33)
_cell_length_b                   10.26904
_cell_length_c                   8.4729(4)
_cell_volume                     773.79(7)
_computing_structure_refinement  GSAS
_pd_block_id
2009-08-27T22:46|A_BA4TA2O9_RT_phase1|Chris_Ling||
_pd_phase_name
'from /Users/Chris/Desktop/a_Ba4Ta2O9/BA4TA2O9.EXP'
_refine_ls_goodness_of_fit_all   5.87
_refine_ls_matrix_type           full
_refine_ls_number_parameters     40
_refine_ls_number_restraints     0
_refine_ls_shift/su_max          0.04
_refine_ls_shift/su_mean         0.01
loop_
_symmetry_equiv_pos_site_id
_symmetry_equiv_pos_as_xyz
1 +x,+y,+z
2 y-x,-x,-z+1/2
3 -y,x-y,+z
4 +x,+y,-z+1/2
5 y-x,-x,+z
6 -y,x-y,-z+1/2
7 x-y,-y,-z
8 -x,y-x,+z+1/2
9 +y,+x,-z
10 x-y,-y,+z+1/2
11 -x,y-x,-z
12 +y,+x,+z+1/2
loop_
_atom_site_type_symbol
_atom_site_label
_atom_site_fract_x
_atom_site_fract_y
_atom_site_fract_z
_atom_site_occupancy
_atom_site_thermal_displace_type
_atom_site_U_iso_or_equiv
_atom_site_symmetry_multiplicity
Ba BA1 0.6698(17) 0.0 0.0 1.0 Uiso 0.0106(18) 6
Ba BA2 0.3351(19) 0.0091(8) 0.25 1.0 Uiso 0.0195(21) 6
Ta TA1 0.0 0.0 0.1751(21) 0.5 Uiso 0.0285(11) 4
Ta TA2 0.6667 0.3333 0.4300(9) 1.0 Uiso 0.0285(11) 4
O O1 0.6738(11) 0.4976(10) 0.5168(5) 1.0 Uiso 0.0278(7) 12
O O2 0.5142(13) 0.3476(11) 0.25 1.0 Uiso 0.0278(7) 6
O O3 1.0000(14) 0.8362(17) 0.7107(13) 0.5 Uiso 0.0278(7) 12
O O4 0.1479(20) 0.0 0.0 0.5 Uiso 0.0278(7) 6
loop_
_atom_type_symbol
_atom_type_number_in_cell
Ba 12.0
Ta 6.0
O 27.0
loop_
_geom_angle_atom_site_label_1
_geom_angle_atom_site_label_2
_geom_angle_atom_site_label_3
_geom_angle
_geom_angle_site_symmetry_1
_geom_angle_site_symmetry_3
_geom_angle_publ_flag
BA1 BA1 BA1 180.0 4_554 4_555 N
BA1 BA1 BA2 121.29(25) 4_554 1_555 N
BA1 BA1 BA2 121.45(14) 4_554 2_655 N
BA1 BA1 BA2 122.52(14) 4_554 3_655 N
BA1 BA1 BA2 58.71(25) 4_554 7_555 N
BA1 BA1 BA2 57.48(14) 4_554 8_654 N
BA1 BA1 BA2 58.55(14) 4_554 9_655 N
BA1 BA1 TA1 113.63(28) 4_554 1_655 N
BA1 BA1 TA1 66.37(28) 4_554 7_655 N
BA1 BA1 TA2 99.78(13) 4_554 2_665 N
BA1 BA1 TA2 80.22(13) 4_554 8_654 N
BA1 BA1 O1 87.19(9) 4_554 2_665 N
BA1 BA1 O1 87.33(8) 4_554 6_655 N
BA1 BA1 O1 92.67(8) 4_554 8_654 N
BA1 BA1 O1 92.81(9) 4_554 12_544 N
BA1 BA1 O2 139.54(23) 4_554 3_655 N
BA1 BA1 O2 40.46(23) 4_554 8_654 N
BA1 BA1 O3 43.7(5) 4_554 2_665 N
BA1 BA1 O3 34.9(4) 4_554 5_664 N
BA1 BA1 O3 145.1(4) 4_554 9_546 N
BA1 BA1 O3 136.3(5) 4_554 12_544 N
BA1 BA1 O4 90.0 4_554 3_655 N
BA1 BA1 O4 90.0 4_554 5_655 N
BA1 BA1 BA2 58.71(25) 4_555 1_555 N
BA1 BA1 BA2 58.55(14) 4_555 2_655 N
BA1 BA1 BA2 57.48(14) 4_555 3_655 N
BA1 BA1 BA2 121.29(25) 4_555 7_555 N
BA1 BA1 BA2 122.52(14) 4_555 8_654 N
BA1 BA1 BA2 121.45(14) 4_555 9_655 N
BA1 BA1 TA1 66.37(28) 4_555 1_655 N
BA1 BA1 TA1 113.63(28) 4_555 7_655 N
BA1 BA1 TA2 80.22(13) 4_555 2_665 N
BA1 BA1 TA2 99.78(13) 4_555 8_654 N
BA1 BA1 O1 92.81(9) 4_555 2_665 N
BA1 BA1 O1 92.67(8) 4_555 6_655 N
BA1 BA1 O1 87.33(8) 4_555 8_654 N
BA1 BA1 O1 87.19(9) 4_555 12_544 N
BA1 BA1 O2 40.46(23) 4_555 3_655 N
BA1 BA1 O2 139.54(23) 4_555 8_654 N
BA1 BA1 O3 136.3(5) 4_555 2_665 N
BA1 BA1 O3 145.1(4) 4_555 5_664 N
BA1 BA1 O3 34.9(4) 4_555 9_546 N
BA1 BA1 O3 43.7(5) 4_555 12_544 N
BA1 BA1 O4 90.0 4_555 3_655 N
BA1 BA1 O4 90.0 4_555 5_655 N
BA2 BA1 BA2 96.60(19) 1_555 2_655 N
BA2 BA1 BA2 93.33(21) 1_555 3_655 N
BA2 BA1 BA2 62.6(5) 1_555 7_555 N
BA2 BA1 BA2 130.23(16) 1_555 8_654 N
BA2 BA1 BA2 128.88(15) 1_555 9_655 N
BA2 BA1 TA1 125.06(30) 1_555 1_655 N
BA2 BA1 TA1 172.3(4) 1_555 7_655 N
BA2 BA1 TA2 57.85(25) 1_555 2_665 N
BA2 BA1 TA2 71.2(4) 1_555 8_654 N
BA2 BA1 O1 88.7(4) 1_555 2_665 N
BA2 BA1 O1 44.06(26) 1_555 6_655 N
BA2 BA1 O1 41.71(29) 1_555 8_654 N
BA2 BA1 O1 88.1(4) 1_555 12_544 N
BA2 BA1 O2 43.70(27) 1_555 3_655 N
BA2 BA1 O2 95.1(6) 1_555 8_654 N
BA2 BA1 O3 165.0(7) 1_555 2_665 N
BA2 BA1 O3 156.2(6) 1_555 5_664 N
BA2 BA1 O3 93.58(28) 1_555 9_546 N
BA2 BA1 O3 102.44(33) 1_555 12_544 N
BA2 BA1 O4 139.05(23) 1_555 3_655 N
BA2 BA1 O4 140.63(22) 1_555 5_655 N
BA2 BA1 BA2 94.62(28) 2_655 3_655 N
BA2 BA1 BA2 128.88(15) 2_655 7_555 N
BA2 BA1 BA2 63.98(26) 2_655 8_654 N
BA2 BA1 BA2 128.48(31) 2_655 9_655 N
BA2 BA1 TA1 52.60(17) 2_655 1_655 N
BA2 BA1 TA1 79.11(27) 2_655 7_655 N
BA2 BA1 TA2 138.76(17) 2_655 2_665 N
BA2 BA1 TA2 71.47(25) 2_655 8_654 N
BA2 BA1 O1 140.57(26) 2_655 2_665 N
BA2 BA1 O1 140.63(25) 2_655 6_655 N
BA2 BA1 O1 88.41(18) 2_655 8_654 N
BA2 BA1 O1 41.9(4) 2_655 12_544 N
BA2 BA1 O2 98.92(17) 2_655 3_655 N
BA2 BA1 O2 99.66(28) 2_655 8_654 N
BA2 BA1 O3 94.4(5) 2_655 2_665 N
BA2 BA1 O3 100.3(4) 2_655 5_664 N
BA2 BA1 O3 47.42(27) 2_655 9_546 N
BA2 BA1 O3 47.35(32) 2_655 12_544 N
BA2 BA1 O4 86.5(4) 2_655 3_655 N
BA2 BA1 O4 44.20(29) 2_655 5_655 N
BA2 BA1 BA2 130.23(16) 3_655 7_555 N
BA2 BA1 BA2 131.33(32) 3_655 8_654 N
BA2 BA1 BA2 63.98(26) 3_655 9_655 N
BA2 BA1 TA1 53.63(18) 3_655 1_655 N
BA2 BA1 TA1 80.68(28) 3_655 7_655 N
BA2 BA1 TA2 59.32(27) 3_655 2_665 N
BA2 BA1 TA2 157.24(22) 3_655 8_654 N
BA2 BA1 O1 46.0(4) 3_655 2_665 N
BA2 BA1 O1 90.09(20) 3_655 6_655 N
BA2 BA1 O1 134.84(24) 3_655 8_654 N
BA2 BA1 O1 136.16(22) 3_655 12_544 N
BA2 BA1 O2 49.64(30) 3_655 3_655 N
BA2 BA1 O2 162.46(26) 3_655 8_654 N
BA2 BA1 O3 95.9(5) 3_655 2_665 N
BA2 BA1 O3 101.8(4) 3_655 5_664 N
BA2 BA1 O3 47.42(26) 3_655 9_546 N
BA2 BA1 O3 47.68(32) 3_655 12_544 N
BA2 BA1 O4 45.78(30) 3_655 3_655 N
BA2 BA1 O4 87.7(4) 3_655 5_655 N
BA2 BA1 BA2 93.33(21) 7_555 8_654 N
BA2 BA1 BA2 96.60(19) 7_555 9_655 N
BA2 BA1 TA1 172.2(4) 7_555 1_655 N
BA2 BA1 TA1 125.06(30) 7_555 7_655 N
BA2 BA1 TA2 71.2(4) 7_555 2_665 N
BA2 BA1 TA2 57.87(25) 7_555 8_654 N
BA2 BA1 O1 88.1(4) 7_555 2_665 N
BA2 BA1 O1 41.71(29) 7_555 6_655 N
BA2 BA1 O1 44.06(26) 7_555 8_654 N
BA2 BA1 O1 88.7(4) 7_555 12_544 N
BA2 BA1 O2 95.1(6) 7_555 3_655 N
BA2 BA1 O2 43.70(27) 7_555 8_654 N
BA2 BA1 O3 102.44(33) 7_555 2_665 N
BA2 BA1 O3 93.58(28) 7_555 5_664 N
BA2 BA1 O3 156.2(6) 7_555 9_546 N
BA2 BA1 O3 165.0(7) 7_555 12_544 N
BA2 BA1 O4 140.63(22) 7_555 3_655 N
BA2 BA1 O4 139.05(23) 7_555 5_655 N
BA2 BA1 BA2 94.62(28) 8_654 9_655 N
BA2 BA1 TA1 80.68(28) 8_654 1_655 N
BA2 BA1 TA1 53.63(18) 8_654 7_655 N
BA2 BA1 TA2 157.24(22) 8_654 2_665 N
BA2 BA1 TA2 59.30(27) 8_654 8_654 N
BA2 BA1 O1 136.16(22) 8_654 2_665 N
BA2 BA1 O1 134.84(24) 8_654 6_655 N
BA2 BA1 O1 90.09(20) 8_654 8_654 N
BA2 BA1 O1 46.0(4) 8_654 12_544 N
BA2 BA1 O2 162.46(26) 8_654 3_655 N
BA2 BA1 O2 49.64(30) 8_654 8_654 N
BA2 BA1 O3 47.68(32) 8_654 2_665 N
BA2 BA1 O3 47.42(26) 8_654 5_664 N
BA2 BA1 O3 101.8(4) 8_654 9_546 N
BA2 BA1 O3 95.9(5) 8_654 12_544 N
BA2 BA1 O4 87.7(4) 8_654 3_655 N
BA2 BA1 O4 45.78(30) 8_654 5_655 N
BA2 BA1 TA1 79.11(27) 9_655 1_655 N
BA2 BA1 TA1 52.60(17) 9_655 7_655 N
BA2 BA1 TA2 71.48(25) 9_655 2_665 N
BA2 BA1 TA2 138.77(17) 9_655 8_654 N
BA2 BA1 O1 41.9(4) 9_655 2_665 N
BA2 BA1 O1 88.41(18) 9_655 6_655 N
BA2 BA1 O1 140.63(25) 9_655 8_654 N
BA2 BA1 O1 140.57(26) 9_655 12_544 N
BA2 BA1 O2 99.66(28) 9_655 3_655 N
BA2 BA1 O2 98.92(17) 9_655 8_654 N
BA2 BA1 O3 47.35(32) 9_655 2_665 N
BA2 BA1 O3 47.42(27) 9_655 5_664 N
BA2 BA1 O3 100.3(4) 9_655 9_546 N
BA2 BA1 O3 94.4(5) 9_655 12_544 N
BA2 BA1 O4 44.20(29) 9_655 3_655 N
BA2 BA1 O4 86.5(4) 9_655 5_655 N
TA1 BA1 TA1 47.3(6) 1_655 7_655 N
TA1 BA1 TA2 112.93(24) 1_655 2_665 N
TA1 BA1 TA2 121.72(22) 1_655 8_654 N
TA1 BA1 O1 92.8(4) 1_655 2_665 N
TA1 BA1 O1 143.54(20) 1_655 6_655 N
TA1 BA1 O1 140.08(21) 1_655 8_654 N
TA1 BA1 O1 90.6(4) 1_655 12_544 N
TA1 BA1 O2 92.0(4) 1_655 3_655 N
TA1 BA1 O2 130.2(5) 1_655 8_654 N
TA1 BA1 O3 69.9(6) 1_655 2_665 N
TA1 BA1 O3 78.8(6) 1_655 5_664 N
TA1 BA1 O3 31.5(4) 1_655 9_546 N
TA1 BA1 O3 22.6(5) 1_655 12_544 N
TA1 BA1 O4 35.0(4) 1_655 3_655 N
TA1 BA1 O4 35.0(4) 1_655 5_655 N
TA1 BA1 TA2 121.73(22) 7_655 2_665 N
TA1 BA1 TA2 112.92(24) 7_655 8_654 N
TA1 BA1 O1 90.6(4) 7_655 2_665 N
TA1 BA1 O1 140.08(21) 7_655 6_655 N
TA1 BA1 O1 143.54(20) 7_655 8_654 N
TA1 BA1 O1 92.8(4) 7_655 12_544 N
TA1 BA1 O2 130.2(5) 7_655 3_655 N
TA1 BA1 O2 92.0(4) 7_655 8_654 N
TA1 BA1 O3 22.6(5) 7_655 2_665 N
TA1 BA1 O3 31.5(4) 7_655 5_664 N
TA1 BA1 O3 78.8(6) 7_655 9_546 N
TA1 BA1 O3 69.9(6) 7_655 12_544 N
TA1 BA1 O4 35.0(4) 7_655 3_655 N
TA1 BA1 O4 35.0(4) 7_655 5_655 N
TA2 BA1 TA2 120.1(5) 2_665 8_654 N
TA2 BA1 O1 31.17(20) 2_665 2_665 N
TA2 BA1 O1 31.16(19) 2_665 6_655 N
TA2 BA1 O1 89.9(4) 2_665 8_654 N
TA2 BA1 O1 145.4(6) 2_665 12_544 N
TA2 BA1 O2 39.93(24) 2_665 3_655 N
TA2 BA1 O2 113.3(5) 2_665 8_654 N
TA2 BA1 O3 117.92(31) 2_665 2_665 N
TA2 BA1 O3 115.16(26) 2_665 5_664 N
TA2 BA1 O3 98.42(28) 2_665 9_546 N
TA2 BA1 O3 102.87(32) 2_665 12_544 N
TA2 BA1 O4 93.9(4) 2_665 3_655 N
TA2 BA1 O4 145.8(6) 2_665 5_655 N
TA2 BA1 O1 145.4(6) 8_654 2_665 N
TA2 BA1 O1 89.9(4) 8_654 6_655 N
TA2 BA1 O1 31.17(19) 8_654 8_654 N
TA2 BA1 O1 31.16(20) 8_654 12_544 N
TA2 BA1 O2 113.3(5) 8_654 3_655 N
TA2 BA1 O2 39.93(24) 8_654 8_654 N
TA2 BA1 O3 102.87(32) 8_654 2_665 N
TA2 BA1 O3 98.41(28) 8_654 5_664 N
TA2 BA1 O3 115.15(26) 8_654 9_546 N
TA2 BA1 O3 117.91(31) 8_654 12_544 N
TA2 BA1 O4 145.7(6) 8_654 3_655 N
TA2 BA1 O4 93.8(4) 8_654 5_655 N
O1 BA1 O1 57.2(4) 2_665 6_655 N
O1 BA1 O1 119.1(5) 2_665 8_654 N
O1 BA1 O1 176.3(8) 2_665 12_544 N
O1 BA1 O2 59.61(20) 2_665 3_655 N
O1 BA1 O2 118.81(33) 2_665 8_654 N
O1 BA1 O3 89.2(4) 2_665 2_665 N
O1 BA1 O3 88.75(34) 2_665 5_664 N
O1 BA1 O3 93.36(34) 2_665 9_546 N
O1 BA1 O3 93.3(4) 2_665 12_544 N
O1 BA1 O4 65.3(4) 2_665 3_655 N
O1 BA1 O4 118.4(8) 2_665 5_655 N
O1 BA1 O1 61.9(4) 6_655 8_654 N
O1 BA1 O1 119.1(5) 6_655 12_544 N
O1 BA1 O2 56.25(31) 6_655 3_655 N
O1 BA1 O2 85.3(4) 6_655 8_654 N
O1 BA1 O3 124.0(4) 6_655 2_665 N
O1 BA1 O3 116.9(4) 6_655 5_664 N
O1 BA1 O3 121.9(4) 6_655 9_546 N
O1 BA1 O3 128.8(4) 6_655 12_544 N
O1 BA1 O4 122.6(4) 6_655 3_655 N
O1 BA1 O4 174.9(5) 6_655 5_655 N
O1 BA1 O1 57.2(4) 8_654 12_544 N
O1 BA1 O2 85.3(4) 8_654 3_655 N
O1 BA1 O2 56.25(31) 8_654 8_654 N
O1 BA1 O3 128.8(4) 8_654 2_665 N
O1 BA1 O3 121.9(4) 8_654 5_664 N
O1 BA1 O3 116.9(4) 8_654 9_546 N
O1 BA1 O3 124.0(4) 8_654 12_544 N
O1 BA1 O4 174.9(5) 8_654 3_655 N
O1 BA1 O4 122.6(4) 8_654 5_655 N
O1 BA1 O2 118.81(33) 12_544 3_655 N
O1 BA1 O2 59.61(20) 12_544 8_654 N
O1 BA1 O3 93.3(4) 12_544 2_665 N
O1 BA1 O3 93.36(34) 12_544 5_664 N
O1 BA1 O3 88.75(34) 12_544 9_546 N
O1 BA1 O3 89.2(4) 12_544 12_544 N
O1 BA1 O4 118.4(8) 12_544 3_655 N
O1 BA1 O4 65.3(4) 12_544 5_655 N
O2 BA1 O2 136.4(8) 3_655 8_654 N
O2 BA1 O3 143.7(5) 3_655 2_665 N
O2 BA1 O3 146.8(4) 3_655 5_664 N
O2 BA1 O3 65.68(35) 3_655 9_546 N
O2 BA1 O3 73.0(4) 3_655 12_544 N
O2 BA1 O4 95.41(29) 3_655 3_655 N
O2 BA1 O4 124.8(5) 3_655 5_655 N
O2 BA1 O3 73.0(4) 8_654 2_665 N
O2 BA1 O3 65.68(35) 8_654 5_664 N
O2 BA1 O3 146.8(4) 8_654 9_546 N
O2 BA1 O3 143.7(5) 8_654 12_544 N
O2 BA1 O4 124.8(5) 8_654 3_655 N
O2 BA1 O4 95.41(29) 8_654 5_655 N
O3 BA1 O3 8.86(29) 2_665 5_664 N
O3 BA1 O3 101.4(9) 2_665 9_546 N
O3 BA1 O3 92.5(9) 2_665 12_544 N
O3 BA1 O4 51.8(6) 2_665 3_655 N
O3 BA1 O4 51.8(5) 2_665 5_655 N
O3 BA1 O3 110.2(9) 5_664 9_546 N
O3 BA1 O3 101.4(9) 5_664 12_544 N
O3 BA1 O4 59.2(5) 5_664 3_655 N
O3 BA1 O4 59.2(5) 5_664 5_655 N
O3 BA1 O3 8.86(29) 9_546 12_544 N
O3 BA1 O4 59.2(5) 9_546 3_655 N
O3 BA1 O4 59.2(5) 9_546 5_655 N
O3 BA1 O4 51.8(5) 12_544 3_655 N
O3 BA1 O4 51.8(6) 12_544 5_655 N
O4 BA1 O4 53.1(10) 3_655 5_655 N
BA1 BA2 BA1 131.45(23) 1_555 2_665 N
BA1 BA2 BA1 94.11(16) 1_555 3_545 N
BA1 BA2 BA1 62.6(5) 1_555 4_555 N
BA1 BA2 BA1 95.94(15) 1_555 5_665 N
BA1 BA2 BA1 127.85(21) 1_555 6_545 N
BA1 BA2 BA2 58.68(25) 1_555 7_555 N
BA1 BA2 BA2 121.22(25) 1_555 7_556 N
BA1 BA2 TA1 138.0(4) 1_555 1_555 N
BA1 BA2 TA1 159.1(4) 1_555 2_555 N
BA1 BA2 TA2 80.1(4) 1_555 1_555 N
BA1 BA2 TA2 53.07(19) 1_555 2_665 N
BA1 BA2 O1 99.5(6) 1_555 3_655 N
BA1 BA2 O1 48.54(27) 1_555 6_655 N
BA1 BA2 O1 48.60(29) 1_555 8_654 N
BA1 BA2 O1 95.5(6) 1_555 11_656 N
BA1 BA2 O2 89.5(4) 1_555 1_555 N
BA1 BA2 O2 42.96(31) 1_555 3_655 N
BA1 BA2 O3 144.67(32) 1_555 7_566 N
BA1 BA2 O3 131.25(29) 1_555 8_654 N
BA1 BA2 O3 134.21(26) 1_555 10_564 N
BA1 BA2 O3 140.78(34) 1_555 11_656 N
BA1 BA2 O4 100.18(33) 1_555 1_555 N
BA1 BA2 O4 162.6(7) 1_555 4_555 N
BA1 BA2 BA1 129.71(29) 2_665 3_545 N
BA1 BA2 BA1 95.94(15) 2_665 4_555 N
BA1 BA2 BA1 65.04(28) 2_665 5_665 N
BA1 BA2 BA1 94.47(27) 2_665 6_545 N
BA1 BA2 BA2 124.40(25) 2_665 7_555 N
BA1 BA2 BA2 59.38(19) 2_665 7_556 N
BA1 BA2 TA1 72.07(27) 2_665 1_555 N
BA1 BA2 TA1 59.65(21) 2_665 2_555 N
BA1 BA2 TA2 54.28(24) 2_665 1_555 N
BA1 BA2 TA2 81.93(27) 2_665 2_665 N
BA1 BA2 O1 47.41(32) 2_665 3_655 N
BA1 BA2 O1 100.34(35) 2_665 6_655 N
BA1 BA2 O1 165.6(4) 2_665 8_654 N
BA1 BA2 O1 100.69(16) 2_665 11_656 N
BA1 BA2 O2 44.78(33) 2_665 1_555 N
BA1 BA2 O2 90.85(32) 2_665 3_655 N
BA1 BA2 O3 38.75(29) 2_665 7_566 N
BA1 BA2 O3 93.7(4) 2_665 8_654 N
BA1 BA2 O3 48.91(25) 2_665 10_564 N
BA1 BA2 O3 86.8(4) 2_665 11_656 N
BA1 BA2 O4 97.9(5) 2_665 1_555 N
BA1 BA2 O4 48.15(16) 2_665 4_555 N
BA1 BA2 BA1 127.85(21) 3_545 4_555 N
BA1 BA2 BA1 94.47(27) 3_545 5_665 N
BA1 BA2 BA1 62.90(28) 3_545 6_545 N
BA1 BA2 BA2 56.64(17) 3_545 7_555 N
BA1 BA2 BA2 119.53(27) 3_545 7_556 N
BA1 BA2 TA1 58.36(20) 3_545 1_555 N
BA1 BA2 TA1 70.56(27) 3_545 2_555 N
BA1 BA2 TA2 172.75(27) 3_545 1_555 N
BA1 BA2 TA2 124.16(14) 3_545 2_665 N
BA1 BA2 O1 158.7(4) 3_545 3_655 N
BA1 BA2 O1 95.76(16) 3_545 6_655 N
BA1 BA2 O1 45.7(4) 3_545 8_654 N
BA1 BA2 O1 93.5(4) 3_545 11_656 N
BA1 BA2 O2 139.20(24) 3_545 1_555 N
BA1 BA2 O2 137.07(30) 3_545 3_655 N
BA1 BA2 O3 92.5(4) 3_545 7_566 N
BA1 BA2 O3 37.31(29) 3_545 8_654 N
BA1 BA2 O3 85.7(4) 3_545 10_564 N
BA1 BA2 O3 47.19(25) 3_545 11_656 N
BA1 BA2 O4 46.44(16) 3_545 1_555 N
BA1 BA2 O4 95.3(5) 3_545 4_555 N
BA1 BA2 BA1 131.45(23) 4_555 5_665 N
BA1 BA2 BA1 94.11(16) 4_555 6_545 N
BA1 BA2 BA2 121.22(25) 4_555 7_555 N
BA1 BA2 BA2 58.68(25) 4_555 7_556 N
BA1 BA2 TA1 159.1(4) 4_555 1_555 N
BA1 BA2 TA1 138.0(4) 4_555 2_555 N
BA1 BA2 TA2 53.06(19) 4_555 1_555 N
BA1 BA2 TA2 80.1(4) 4_555 2_665 N
BA1 BA2 O1 48.54(27) 4_555 3_655 N
BA1 BA2 O1 99.5(6) 4_555 6_655 N
BA1 BA2 O1 95.5(6) 4_555 8_654 N
BA1 BA2 O1 48.60(29) 4_555 11_656 N
BA1 BA2 O2 89.5(4) 4_555 1_555 N
BA1 BA2 O2 42.96(31) 4_555 3_655 N
BA1 BA2 O3 134.21(26) 4_555 7_566 N
BA1 BA2 O3 140.78(34) 4_555 8_654 N
BA1 BA2 O3 144.67(32) 4_555 10_564 N
BA1 BA2 O3 131.25(29) 4_555 11_656 N
BA1 BA2 O4 162.6(7) 4_555 1_555 N
BA1 BA2 O4 100.18(33) 4_555 4_555 N
BA1 BA2 BA1 129.71(29) 5_665 6_545 N
BA1 BA2 BA2 59.38(19) 5_665 7_555 N
BA1 BA2 BA2 124.40(25) 5_665 7_556 N
BA1 BA2 TA1 59.65(21) 5_665 1_555 N
BA1 BA2 TA1 72.07(27) 5_665 2_555 N
BA1 BA2 TA2 81.93(27) 5_665 1_555 N
BA1 BA2 TA2 54.26(24) 5_665 2_665 N
BA1 BA2 O1 100.34(35) 5_665 3_655 N
BA1 BA2 O1 47.41(32) 5_665 6_655 N
BA1 BA2 O1 100.69(16) 5_665 8_654 N
BA1 BA2 O1 165.6(4) 5_665 11_656 N
BA1 BA2 O2 44.78(33) 5_665 1_555 N
BA1 BA2 O2 90.85(32) 5_665 3_655 N
BA1 BA2 O3 48.91(25) 5_665 7_566 N
BA1 BA2 O3 86.8(4) 5_665 8_654 N
BA1 BA2 O3 38.75(29) 5_665 10_564 N
BA1 BA2 O3 93.7(4) 5_665 11_656 N
BA1 BA2 O4 48.15(16) 5_665 1_555 N
BA1 BA2 O4 97.9(5) 5_665 4_555 N
BA1 BA2 BA2 119.53(27) 6_545 7_555 N
BA1 BA2 BA2 56.64(17) 6_545 7_556 N
BA1 BA2 TA1 70.56(27) 6_545 1_555 N
BA1 BA2 TA1 58.36(20) 6_545 2_555 N
BA1 BA2 TA2 124.16(14) 6_545 1_555 N
BA1 BA2 TA2 172.75(27) 6_545 2_665 N
BA1 BA2 O1 95.76(16) 6_545 3_655 N
BA1 BA2 O1 158.7(4) 6_545 6_655 N
BA1 BA2 O1 93.5(4) 6_545 8_654 N
BA1 BA2 O1 45.7(4) 6_545 11_656 N
BA1 BA2 O2 139.20(24) 6_545 1_555 N
BA1 BA2 O2 137.07(30) 6_545 3_655 N
BA1 BA2 O3 85.7(4) 6_545 7_566 N
BA1 BA2 O3 47.19(25) 6_545 8_654 N
BA1 BA2 O3 92.5(4) 6_545 10_564 N
BA1 BA2 O3 37.31(29) 6_545 11_656 N
BA1 BA2 O4 95.3(5) 6_545 1_555 N
BA1 BA2 O4 46.44(16) 6_545 4_555 N
BA2 BA2 BA2 175.6(4) 7_555 7_556 N
BA2 BA2 TA1 79.37(30) 7_555 1_555 N
BA2 BA2 TA1 100.52(30) 7_555 2_555 N
BA2 BA2 TA2 116.24(25) 7_555 1_555 N
BA2 BA2 TA2 67.52(18) 7_555 2_665 N
BA2 BA2 O1 144.7(4) 7_555 3_655 N
BA2 BA2 O1 39.13(23) 7_555 6_655 N
BA2 BA2 O1 41.33(24) 7_555 8_654 N
BA2 BA2 O1 134.8(4) 7_555 11_656 N
BA2 BA2 O2 92.20(20) 7_555 1_555 N
BA2 BA2 O2 91.09(10) 7_555 3_655 N
BA2 BA2 O3 97.59(24) 7_555 7_566 N
BA2 BA2 O3 82.50(23) 7_555 8_654 N
BA2 BA2 O3 84.50(22) 7_555 10_564 N
BA2 BA2 O3 95.24(24) 7_555 11_656 N
BA2 BA2 O4 41.5(5) 7_555 1_555 N
BA2 BA2 O4 138.3(5) 7_555 4_555 N
BA2 BA2 TA1 100.52(30) 7_556 1_555 N
BA2 BA2 TA1 79.37(30) 7_556 2_555 N
BA2 BA2 TA2 67.52(18) 7_556 1_555 N
BA2 BA2 TA2 116.24(25) 7_556 2_665 N
BA2 BA2 O1 39.13(23) 7_556 3_655 N
BA2 BA2 O1 144.7(4) 7_556 6_655 N
BA2 BA2 O1 134.8(4) 7_556 8_654 N
BA2 BA2 O1 41.33(24) 7_556 11_656 N
BA2 BA2 O2 92.20(20) 7_556 1_555 N
BA2 BA2 O2 91.09(10) 7_556 3_655 N
BA2 BA2 O3 84.50(22) 7_556 7_566 N
BA2 BA2 O3 95.24(24) 7_556 8_654 N
BA2 BA2 O3 97.59(24) 7_556 10_564 N
BA2 BA2 O3 82.50(23) 7_556 11_656 N
BA2 BA2 O4 138.3(5) 7_556 1_555 N
BA2 BA2 O4 41.5(5) 7_556 4_555 N
TA1 BA2 TA1 21.2(6) 1_555 2_555 N
TA1 BA2 TA2 123.84(33) 1_555 1_555 N
TA1 BA2 TA2 113.90(32) 1_555 2_665 N
TA1 BA2 O1 117.2(5) 1_555 3_655 N
TA1 BA2 O1 99.4(5) 1_555 6_655 N
TA1 BA2 O1 99.4(5) 1_555 8_654 N
TA1 BA2 O1 115.5(6) 1_555 11_656 N
TA1 BA2 O2 93.2(4) 1_555 1_555 N
TA1 BA2 O2 149.9(4) 1_555 3_655 N
TA1 BA2 O3 34.2(4) 1_555 7_566 N
TA1 BA2 O3 29.7(4) 1_555 8_654 N
TA1 BA2 O3 29.6(4) 1_555 10_564 N
TA1 BA2 O3 34.1(4) 1_555 11_656 N
TA1 BA2 O4 37.9(5) 1_555 1_555 N
TA1 BA2 O4 59.0(6) 1_555 4_555 N
TA1 BA2 TA2 113.91(32) 2_555 1_555 N
TA1 BA2 TA2 123.82(33) 2_555 2_665 N
TA1 BA2 O1 99.4(5) 2_555 3_655 N
TA1 BA2 O1 117.2(5) 2_555 6_655 N
TA1 BA2 O1 115.5(6) 2_555 8_654 N
TA1 BA2 O1 99.4(5) 2_555 11_656 N
TA1 BA2 O2 93.2(4) 2_555 1_555 N
TA1 BA2 O2 149.9(4) 2_555 3_655 N
TA1 BA2 O3 29.6(4) 2_555 7_566 N
TA1 BA2 O3 34.1(4) 2_555 8_654 N
TA1 BA2 O3 34.2(4) 2_555 10_564 N
TA1 BA2 O3 29.7(4) 2_555 11_656 N
TA1 BA2 O4 59.0(6) 2_555 1_555 N
TA1 BA2 O4 37.9(5) 2_555 4_555 N
TA2 BA2 TA2 48.73(27) 1_555 2_665 N
TA2 BA2 O1 28.43(22) 1_555 3_655 N
TA2 BA2 O1 77.15(34) 1_555 6_655 N
TA2 BA2 O1 128.7(6) 1_555 8_654 N
TA2 BA2 O1 91.38(35) 1_555 11_656 N
TA2 BA2 O2 37.33(21) 1_555 1_555 N
TA2 BA2 O2 37.28(22) 1_555 3_655 N
TA2 BA2 O3 89.85(32) 1_555 7_566 N
TA2 BA2 O3 147.8(6) 1_555 8_654 N
TA2 BA2 O3 95.25(33) 1_555 10_564 N
TA2 BA2 O3 139.0(5) 1_555 11_656 N
TA2 BA2 O4 130.03(25) 1_555 1_555 N
TA2 BA2 O4 91.47(24) 1_555 4_555 N
TA2 BA2 O1 77.16(34) 2_665 3_655 N
TA2 BA2 O1 28.43(22) 2_665 6_655 N
TA2 BA2 O1 91.38(35) 2_665 8_654 N
TA2 BA2 O1 128.7(6) 2_665 11_656 N
TA2 BA2 O2 37.32(21) 2_665 1_555 N
TA2 BA2 O2 37.29(22) 2_665 3_655 N
TA2 BA2 O3 95.23(33) 2_665 7_566 N
TA2 BA2 O3 139.0(5) 2_665 8_654 N
TA2 BA2 O3 89.83(32) 2_665 10_564 N
TA2 BA2 O3 147.8(6) 2_665 11_656 N
TA2 BA2 O4 91.46(24) 2_665 1_555 N
TA2 BA2 O4 130.02(25) 2_665 4_555 N
O1 BA2 O1 105.6(5) 3_655 6_655 N
O1 BA2 O1 143.3(9) 3_655 8_654 N
O1 BA2 O1 69.02(31) 3_655 11_656 N
O1 BA2 O2 57.77(20) 3_655 1_555 N
O1 BA2 O2 58.5(4) 3_655 3_655 N
O1 BA2 O3 85.85(35) 3_655 7_566 N
O1 BA2 O3 127.9(6) 3_655 8_654 N
O1 BA2 O3 96.3(4) 3_655 10_564 N
O1 BA2 O3 116.0(5) 3_655 11_656 N
O1 BA2 O4 144.3(6) 3_655 1_555 N
O1 BA2 O4 67.66(28) 3_655 4_555 N
O1 BA2 O1 69.02(31) 6_655 8_654 N
O1 BA2 O1 143.3(9) 6_655 11_656 N
O1 BA2 O2 57.77(20) 6_655 1_555 N
O1 BA2 O2 58.5(4) 6_655 3_655 N
O1 BA2 O3 96.3(4) 6_655 7_566 N
O1 BA2 O3 116.0(5) 6_655 8_654 N
O1 BA2 O3 85.85(35) 6_655 10_564 N
O1 BA2 O3 127.9(6) 6_655 11_656 N
O1 BA2 O4 67.66(28) 6_655 1_555 N
O1 BA2 O4 144.3(6) 6_655 4_555 N
O1 BA2 O1 93.5(5) 8_654 11_656 N
O1 BA2 O2 126.63(35) 8_654 1_555 N
O1 BA2 O2 91.5(6) 8_654 3_655 N
O1 BA2 O3 130.3(7) 8_654 7_566 N
O1 BA2 O3 83.0(4) 8_654 8_654 N
O1 BA2 O3 118.7(6) 8_654 10_564 N
O1 BA2 O3 92.2(4) 8_654 11_656 N
O1 BA2 O4 69.37(27) 8_654 1_555 N
O1 BA2 O4 137.5(5) 8_654 4_555 N
O1 BA2 O2 126.63(35) 11_656 1_555 N
O1 BA2 O2 91.5(6) 11_656 3_655 N
O1 BA2 O3 118.7(6) 11_656 7_566 N
O1 BA2 O3 92.2(4) 11_656 8_654 N
O1 BA2 O3 130.3(7) 11_656 10_564 N
O1 BA2 O3 83.0(4) 11_656 11_656 N
O1 BA2 O4 137.5(5) 11_656 1_555 N
O1 BA2 O4 69.37(27) 11_656 4_555 N
O2 BA2 O2 58.3(5) 1_555 3_655 N
O2 BA2 O3 63.8(4) 1_555 7_566 N
O2 BA2 O3 122.8(7) 1_555 8_654 N
O2 BA2 O3 63.8(4) 1_555 10_564 N
O2 BA2 O3 122.8(7) 1_555 11_656 N
O2 BA2 O4 92.92(29) 1_555 1_555 N
O2 BA2 O4 92.92(29) 1_555 4_555 N
O2 BA2 O3 121.7(5) 3_655 7_566 N
O2 BA2 O3 173.49(25) 3_655 8_654 N
O2 BA2 O3 121.7(5) 3_655 10_564 N
O2 BA2 O3 173.49(25) 3_655 11_656 N
O2 BA2 O4 126.1(4) 3_655 1_555 N
O2 BA2 O4 126.1(4) 3_655 4_555 N
O3 BA2 O3 60.6(8) 7_566 8_654 N
O3 BA2 O3 13.1(4) 7_566 10_564 N
O3 BA2 O3 59.0(8) 7_566 11_656 N
O3 BA2 O4 61.3(6) 7_566 1_555 N
O3 BA2 O4 49.4(5) 7_566 4_555 N
O3 BA2 O3 59.0(8) 8_654 10_564 N
O3 BA2 O3 12.7(4) 8_654 11_656 N
O3 BA2 O4 48.6(5) 8_654 1_555 N
O3 BA2 O4 60.3(6) 8_654 4_555 N
O3 BA2 O3 60.6(8) 10_564 11_656 N
O3 BA2 O4 49.4(5) 10_564 1_555 N
O3 BA2 O4 61.3(6) 10_564 4_555 N
O3 BA2 O4 60.3(6) 11_656 1_555 N
O3 BA2 O4 48.6(5) 11_656 4_555 N
O4 BA2 O4 96.9(10) 1_555 4_555 N
BA1 TA1 BA1 105.01(32) 1_455 3_545 N
BA1 TA1 BA1 105.01(32) 1_455 5_665 N
BA1 TA1 BA2 166.9(6) 1_455 1_555 N
BA1 TA1 BA2 69.03(13) 1_455 2_555 N
BA1 TA1 BA2 66.72(14) 1_455 3_555 N
BA1 TA1 TA1 113.63(28) 1_455 2_555 N
BA1 TA1 O3 126.6(4) 1_455 7_566 N
BA1 TA1 O3 121.4(5) 1_455 8_654 N
BA1 TA1 O3 53.5(4) 1_455 9_446 N
BA1 TA1 O3 121.4(5) 1_455 10_564 N
BA1 TA1 O3 126.7(4) 1_455 11_656 N
BA1 TA1 O3 33.8(6) 1_455 12_444 N
BA1 TA1 O4 112.0(7) 1_455 1_555 N
BA1 TA1 O4 52.57(17) 1_455 3_555 N
BA1 TA1 O4 52.57(17) 1_455 5_555 N
BA1 TA1 BA1 105.01(32) 3_545 5_665 N
BA1 TA1 BA2 69.03(13) 3_545 1_555 N
BA1 TA1 BA2 66.72(14) 3_545 2_555 N
BA1 TA1 BA2 166.9(6) 3_545 3_555 N
BA1 TA1 TA1 113.63(28) 3_545 2_555 N
BA1 TA1 O3 126.7(4) 3_545 7_566 N
BA1 TA1 O3 33.8(6) 3_545 8_654 N
BA1 TA1 O3 126.6(4) 3_545 9_446 N
BA1 TA1 O3 121.4(5) 3_545 10_564 N
BA1 TA1 O3 53.5(4) 3_545 11_656 N
BA1 TA1 O3 121.4(5) 3_545 12_444 N
BA1 TA1 O4 52.57(17) 3_545 1_555 N
BA1 TA1 O4 112.0(7) 3_545 3_555 N
BA1 TA1 O4 52.57(17) 3_545 5_555 N
BA1 TA1 BA2 66.72(14) 5_665 1_555 N
BA1 TA1 BA2 166.9(6) 5_665 2_555 N
BA1 TA1 BA2 69.03(13) 5_665 3_555 N
BA1 TA1 TA1 113.63(28) 5_665 2_555 N
BA1 TA1 O3 53.5(4) 5_665 7_566 N
BA1 TA1 O3 121.4(5) 5_665 8_654 N
BA1 TA1 O3 126.7(4) 5_665 9_446 N
BA1 TA1 O3 33.8(6) 5_665 10_564 N
BA1 TA1 O3 126.6(4) 5_665 11_656 N
BA1 TA1 O3 121.4(5) 5_665 12_444 N
BA1 TA1 O4 52.57(17) 5_665 1_555 N
BA1 TA1 O4 52.57(17) 5_665 3_555 N
BA1 TA1 O4 112.0(7) 5_665 5_555 N
BA2 TA1 BA2 116.71(18) 1_555 2_555 N
BA2 TA1 BA2 116.71(18) 1_555 3_555 N
BA2 TA1 TA1 79.42(30) 1_555 2_555 N
BA2 TA1 O3 57.6(4) 1_555 7_566 N
BA2 TA1 O3 60.3(5) 1_555 8_654 N
BA2 TA1 O3 139.5(8) 1_555 9_446 N
BA2 TA1 O3 57.6(5) 1_555 10_564 N
BA2 TA1 O3 60.0(4) 1_555 11_656 N
BA2 TA1 O3 159.2(11) 1_555 12_444 N
BA2 TA1 O4 54.9(4) 1_555 1_555 N
BA2 TA1 O4 117.72(33) 1_555 3_555 N
BA2 TA1 O4 119.63(33) 1_555 5_555 N
BA2 TA1 BA2 116.71(18) 2_555 3_555 N
BA2 TA1 TA1 79.42(30) 2_555 2_555 N
BA2 TA1 O3 139.5(8) 2_555 7_566 N
BA2 TA1 O3 57.6(5) 2_555 8_654 N
BA2 TA1 O3 60.0(4) 2_555 9_446 N
BA2 TA1 O3 159.2(11) 2_555 10_564 N
BA2 TA1 O3 57.6(4) 2_555 11_656 N
BA2 TA1 O3 60.3(5) 2_555 12_444 N
BA2 TA1 O4 117.72(33) 2_555 1_555 N
BA2 TA1 O4 119.63(33) 2_555 3_555 N
BA2 TA1 O4 54.9(4) 2_555 5_555 N
BA2 TA1 TA1 79.42(30) 3_555 2_555 N
BA2 TA1 O3 60.0(4) 3_555 7_566 N
BA2 TA1 O3 159.2(11) 3_555 8_654 N
BA2 TA1 O3 57.6(4) 3_555 9_446 N
BA2 TA1 O3 60.3(5) 3_555 10_564 N
BA2 TA1 O3 139.5(8) 3_555 11_656 N
BA2 TA1 O3 57.6(5) 3_555 12_444 N
BA2 TA1 O4 119.63(33) 3_555 1_555 N
BA2 TA1 O4 54.9(4) 3_555 3_555 N
BA2 TA1 O4 117.72(33) 3_555 5_555 N
TA1 TA1 O3 60.1(5) 2_555 7_566 N
TA1 TA1 O3 79.8(8) 2_555 8_654 N
TA1 TA1 O3 60.1(5) 2_555 9_446 N
TA1 TA1 O3 79.8(8) 2_555 10_564 N
TA1 TA1 O3 60.1(5) 2_555 11_656 N
TA1 TA1 O3 79.8(8) 2_555 12_444 N
TA1 TA1 O4 134.3(5) 2_555 1_555 N
TA1 TA1 O4 134.3(5) 2_555 3_555 N
TA1 TA1 O4 134.3(5) 2_555 5_555 N
O3 TA1 O3 109.8(6) 7_566 8_654 N
O3 TA1 O3 97.3(7) 7_566 9_446 N
O3 TA1 O3 19.7(7) 7_566 10_564 N
O3 TA1 O3 97.3(7) 7_566 11_656 N
O3 TA1 O3 109.8(6) 7_566 12_444 N
O3 TA1 O4 92.2(5) 7_566 1_555 N
O3 TA1 O4 92.2(5) 7_566 3_555 N
O3 TA1 O4 165.6(9) 7_566 5_555 N
O3 TA1 O3 109.8(6) 8_654 9_446 N
O3 TA1 O3 117.0(5) 8_654 10_564 N
O3 TA1 O3 19.7(7) 8_654 11_656 N
O3 TA1 O3 117.0(5) 8_654 12_444 N
O3 TA1 O4 76.8(6) 8_654 1_555 N
O3 TA1 O4 145.8(12) 8_654 3_555 N
O3 TA1 O4 76.8(6) 8_654 5_555 N
O3 TA1 O3 109.8(6) 9_446 10_564 N
O3 TA1 O3 97.3(7) 9_446 11_656 N
O3 TA1 O3 19.7(7) 9_446 12_444 N
O3 TA1 O4 165.6(9) 9_446 1_555 N
O3 TA1 O4 92.2(5) 9_446 3_555 N
O3 TA1 O4 92.2(5) 9_446 5_555 N
O3 TA1 O3 109.8(6) 10_564 11_656 N
O3 TA1 O3 117.0(5) 10_564 12_444 N
O3 TA1 O4 76.8(6) 10_564 1_555 N
O3 TA1 O4 76.8(6) 10_564 3_555 N
O3 TA1 O4 145.8(12) 10_564 5_555 N
O3 TA1 O3 109.8(6) 11_656 12_444 N
O3 TA1 O4 92.2(5) 11_656 1_555 N
O3 TA1 O4 165.6(9) 11_656 3_555 N
O3 TA1 O4 92.2(5) 11_656 5_555 N
O3 TA1 O4 145.8(12) 12_444 1_555 N
O3 TA1 O4 76.8(6) 12_444 3_555 N
O3 TA1 O4 76.8(6) 12_444 5_555 N
O4 TA1 O4 76.5(8) 1_555 3_555 N
O4 TA1 O4 76.5(8) 1_555 5_555 N
O4 TA1 O4 76.5(8) 3_555 5_555 N
BA1 TA2 BA1 117.17(7) 2_665 4_555 N
BA1 TA2 BA1 117.16(7) 2_665 6_655 N
BA1 TA2 BA2 66.4(4) 2_665 1_555 N
BA1 TA2 BA2 69.1(4) 2_665 2_665 N
BA1 TA2 BA2 165.34(25) 2_665 3_655 N
BA1 TA2 O1 61.14(31) 2_665 1_555 N
BA1 TA2 O1 56.28(30) 2_665 3_655 N
BA1 TA2 O1 146.1(4) 2_665 5_665 N
BA1 TA2 O2 52.81(19) 2_665 1_555 N
BA1 TA2 O2 121.90(32) 2_665 2_665 N
BA1 TA2 O2 114.97(34) 2_665 3_655 N
BA1 TA2 BA1 117.19(7) 4_555 6_655 N
BA1 TA2 BA2 69.1(4) 4_555 1_555 N
BA1 TA2 BA2 165.35(25) 4_555 2_665 N
BA1 TA2 BA2 66.4(4) 4_555 3_655 N
BA1 TA2 O1 146.1(4) 4_555 1_555 N
BA1 TA2 O1 61.16(31) 4_555 3_655 N
BA1 TA2 O1 56.30(30) 4_555 5_665 N
BA1 TA2 O2 121.93(32) 4_555 1_555 N
BA1 TA2 O2 115.00(34) 4_555 2_665 N
BA1 TA2 O2 52.83(19) 4_555 3_655 N
BA1 TA2 BA2 165.34(25) 6_655 1_555 N
BA1 TA2 BA2 66.4(4) 6_655 2_665 N
BA1 TA2 BA2 69.1(4) 6_655 3_655 N
BA1 TA2 O1 56.29(30) 6_655 1_555 N
BA1 TA2 O1 146.1(4) 6_655 3_655 N
BA1 TA2 O1 61.15(31) 6_655 5_665 N
BA1 TA2 O2 114.97(34) 6_655 1_555 N
BA1 TA2 O2 52.82(19) 6_655 2_665 N
BA1 TA2 O2 121.93(32) 6_655 3_655 N
BA2 TA2 BA2 104.16(16) 1_555 2_665 N
BA2 TA2 BA2 104.17(16) 1_555 3_655 N
BA2 TA2 O1 126.7(4) 1_555 1_555 N
BA2 TA2 O1 48.39(21) 1_555 3_655 N
BA2 TA2 O1 124.8(4) 1_555 5_665 N
BA2 TA2 O2 54.51(33) 1_555 1_555 N
BA2 TA2 O2 112.72(33) 1_555 2_665 N
BA2 TA2 O2 49.7(4) 1_555 3_655 N
BA2 TA2 BA2 104.16(16) 2_665 3_655 N
BA2 TA2 O1 48.38(21) 2_665 1_555 N
BA2 TA2 O1 124.7(4) 2_665 3_655 N
BA2 TA2 O1 126.7(4) 2_665 5_665 N
BA2 TA2 O2 49.7(4) 2_665 1_555 N
BA2 TA2 O2 54.50(33) 2_665 2_665 N
BA2 TA2 O2 112.71(33) 2_665 3_655 N
BA2 TA2 O1 124.8(4) 3_655 1_555 N
BA2 TA2 O1 126.7(4) 3_655 3_655 N
BA2 TA2 O1 48.40(21) 3_655 5_665 N
BA2 TA2 O2 112.72(33) 3_655 1_555 N
BA2 TA2 O2 49.7(4) 3_655 2_665 N
BA2 TA2 O2 54.52(33) 3_655 3_655 N
O1 TA2 O1 104.55(33) 1_555 3_655 N
O1 TA2 O1 104.57(33) 1_555 5_665 N
O1 TA2 O2 85.37(35) 1_555 1_555 N
O1 TA2 O2 88.0(4) 1_555 2_665 N
O1 TA2 O2 161.1(5) 1_555 3_655 N
O1 TA2 O1 104.59(33) 3_655 5_665 N
O1 TA2 O2 88.0(4) 3_655 1_555 N
O1 TA2 O2 161.1(5) 3_655 2_665 N
O1 TA2 O2 85.40(35) 3_655 3_655 N
O1 TA2 O2 161.1(5) 5_665 1_555 N
O1 TA2 O2 85.41(35) 5_665 2_665 N
O1 TA2 O2 88.0(4) 5_665 3_655 N
O2 TA2 O2 78.8(4) 1_555 2_665 N
O2 TA2 O2 78.8(4) 1_555 3_655 N
O2 TA2 O2 78.8(4) 2_665 3_655 N
BA1 O1 BA1 173.89(23) 2_665 6_655 N
BA1 O1 BA2 87.4(5) 2_665 2_665 N
BA1 O1 BA2 89.7(5) 2_665 8_665 N
BA1 O1 TA2 87.69(31) 2_665 1_555 N
BA1 O1 BA2 86.6(6) 6_655 2_665 N
BA1 O1 BA2 92.5(7) 6_655 8_665 N
BA1 O1 TA2 92.5(4) 6_655 1_555 N
BA2 O1 BA2 99.5(4) 2_665 8_665 N
BA2 O1 TA2 103.19(34) 2_665 1_555 N
BA2 O1 TA2 157.0(5) 8_665 1_555 N
BA1 O2 BA1 99.1(5) 2_665 5_665 N
BA1 O2 BA2 85.6(6) 2_665 1_555 N
BA1 O2 BA2 93.3(5) 2_665 2_665 N
BA1 O2 TA2 87.25(19) 2_665 1_555 N
BA1 O2 TA2 170.7(4) 2_665 2_665 N
BA1 O2 BA2 85.6(6) 5_665 1_555 N
BA1 O2 BA2 93.3(5) 5_665 2_665 N
BA1 O2 TA2 170.7(4) 5_665 1_555 N
BA1 O2 TA2 87.24(19) 5_665 2_665 N
BA2 O2 BA2 178.3(5) 1_555 2_665 N
BA2 O2 TA2 88.2(4) 1_555 1_555 N
BA2 O2 TA2 88.2(4) 1_555 2_665 N
BA2 O2 TA2 93.1(4) 2_665 1_555 N
BA2 O2 TA2 93.1(4) 2_665 2_665 N
TA2 O2 TA2 85.7(5) 1_555 2_665 N
BA1 O3 BA1 101.4(9) 3_656 6_655 N
BA1 O3 BA2 83.67(35) 3_656 7_666 N
BA1 O3 BA2 85.38(34) 3_656 8_665 N
BA1 O3 TA1 95.0(6) 3_656 7_666 N
BA1 O3 TA1 135.0(10) 3_656 8_665 N
BA1 O3 O3 34.9(4) 3_656 4_556 N
BA1 O3 BA2 93.6(5) 6_655 7_666 N
BA1 O3 BA2 95.3(5) 6_655 8_665 N
BA1 O3 TA1 163.6(9) 6_655 7_666 N
BA1 O3 TA1 123.6(10) 6_655 8_665 N
BA1 O3 O3 136.3(5) 6_655 4_556 N
BA2 O3 BA2 167.1(4) 7_666 8_665 N
BA2 O3 TA1 88.2(5) 7_666 7_666 N
BA2 O3 TA1 92.8(6) 7_666 8_665 N
BA2 O3 O3 83.45(21) 7_666 4_556 N
BA2 O3 TA1 85.9(5) 8_665 7_666 N
BA2 O3 TA1 90.1(6) 8_665 8_665 N
BA2 O3 O3 83.63(21) 8_665 4_556 N
TA1 O3 TA1 40.1(11) 7_666 8_665 N
TA1 O3 O3 60.1(5) 7_666 4_556 N
TA1 O3 O3 100.2(8) 8_665 4_556 N
BA1 O4 BA1 173.1(10) 3_545 5_665 N
BA1 O4 BA2 89.4(4) 3_545 1_555 N
BA1 O4 BA2 86.1(4) 3_545 7_555 N
BA1 O4 TA1 92.47(33) 3_545 1_555 N
BA1 O4 TA1 92.47(33) 3_545 7_555 N
BA1 O4 BA2 86.1(4) 5_665 1_555 N
BA1 O4 BA2 89.4(4) 5_665 7_555 N
BA1 O4 TA1 92.47(33) 5_665 1_555 N
BA1 O4 TA1 92.47(33) 5_665 7_555 N
BA2 O4 BA2 97.0(10) 1_555 7_555 N
BA2 O4 TA1 87.2(4) 1_555 1_555 N
BA2 O4 TA1 175.5(8) 1_555 7_555 N
BA2 O4 TA1 175.5(8) 7_555 1_555 N
BA2 O4 TA1 87.2(4) 7_555 7_555 N
TA1 O4 TA1 88.7(10) 1_555 7_555 N
loop_
_geom_bond_atom_site_label_1
_geom_bond_atom_site_label_2
_geom_bond_distance
_geom_bond_site_symmetry_2
_geom_bond_publ_flag
BA1 BA1 4.23645(19) 4_554 N
BA1 BA1 4.23645(19) 4_555 N
BA1 BA2 4.078(29) 1_555 N
BA1 BA2 4.060(16) 2_655 N
BA1 BA2 3.940(15) 3_655 N
BA1 BA2 4.078(29) 7_555 N
BA1 BA2 3.940(15) 8_654 N
BA1 BA2 4.060(16) 9_655 N
BA1 TA1 3.702(18) 1_655 N
BA1 TA1 3.702(18) 7_655 N
BA1 TA2 3.490(9) 2_665 N
BA1 TA2 3.490(9) 8_654 N
BA1 O1 2.906(10) 2_665 N
BA1 O1 3.059(15) 6_655 N
BA1 O1 3.059(15) 8_654 N
BA1 O1 2.906(10) 12_544 N
BA1 O2 2.784(10) 3_655 N
BA1 O2 2.784(10) 8_654 N
BA1 O3 2.471(20) 2_665 N
BA1 O3 2.988(17) 5_664 N
BA1 O3 2.988(17) 9_546 N
BA1 O3 2.471(20) 12_544 N
BA1 O4 2.942(16) 3_655 N
BA1 O4 2.942(16) 5_655 N
BA2 BA1 4.078(29) 1_555 N
BA2 BA1 3.940(15) 2_665 N
BA2 BA1 4.060(16) 3_545 N
BA2 BA1 4.078(29) 4_555 N
BA2 BA1 3.940(15) 5_665 N
BA2 BA1 4.060(16) 6_545 N
BA2 BA2 4.2396(6) 7_555 N
BA2 BA2 4.2396(6) 7_556 N
BA2 TA1 3.454(18) 1_555 N
BA2 TA1 3.454(18) 2_555 N
BA2 TA2 3.697(11) 1_555 N
BA2 TA2 3.696(11) 2_665 N
BA2 O1 2.839(10) 3_655 N
BA2 O1 2.839(10) 6_655 N
BA2 O1 2.713(11) 8_654 N
BA2 O1 2.713(11) 11_656 N
BA2 O2 3.012(13) 1_555 N
BA2 O2 2.822(20) 3_655 N
BA2 O3 2.919(21) 7_566 N
BA2 O3 2.999(21) 8_654 N
BA2 O3 2.919(21) 10_564 N
BA2 O3 2.999(21) 11_656 N
BA2 O4 2.830(21) 1_555 N
BA2 O4 2.830(21) 4_555 N
TA1 BA1 3.702(18) 1_455 N
TA1 BA1 3.702(18) 3_545 N
TA1 BA1 3.702(18) 5_665 N
TA1 BA2 3.454(18) 1_555 N
TA1 BA2 3.454(18) 2_555 N
TA1 BA2 3.454(18) 3_555 N
TA1 TA1 1.27(4) 2_555 N
TA1 TA1 2.97(4) 7_555 N
TA1 O3 1.940(16) 7_566 N
TA1 O3 1.709(17) 8_654 N
TA1 O3 1.940(16) 9_446 N
TA1 O3 1.709(17) 10_564 N
TA1 O3 1.940(16) 11_656 N
TA1 O3 1.709(17) 12_444 N
TA1 O4 2.123(19) 1_555 N
TA1 O4 2.123(19) 3_555 N
TA1 O4 2.123(19) 5_555 N
TA2 BA1 3.490(9) 2_665 N
TA2 BA1 3.489(9) 4_555 N
TA2 BA1 3.490(9) 6_655 N
TA2 BA2 3.697(11) 1_555 N
TA2 BA2 3.697(11) 2_665 N
TA2 BA2 3.696(11) 3_655 N
TA2 TA2 3.050(16) 2_665 N
TA2 O1 1.808(8) 1_555 N
TA2 O1 1.808(8) 3_655 N
TA2 O1 1.807(8) 5_665 N
TA2 O2 2.243(9) 1_555 N
TA2 O2 2.243(9) 2_665 N
TA2 O2 2.242(9) 3_655 N
O1 BA1 3.059(15) 2_665 N
O1 BA1 2.906(10) 6_655 N
O1 BA2 2.839(10) 2_665 N
O1 BA2 2.713(11) 8_665 N
O1 TA2 1.808(8) 1_555 N
O2 BA1 2.784(10) 2_665 N
O2 BA1 2.784(10) 5_665 N
O2 BA2 3.012(13) 1_555 N
O2 BA2 2.822(20) 2_665 N
O2 TA2 2.243(9) 1_555 N
O2 TA2 2.242(9) 2_665 N
O3 BA1 2.988(17) 3_656 N
O3 BA1 2.471(20) 6_655 N
O3 BA2 2.919(21) 7_666 N
O3 BA2 2.999(21) 8_665 N
O3 TA1 1.940(16) 7_666 N
O3 TA1 1.709(17) 8_665 N
O3 O3 0.666(21) 4_556 N
O4 BA1 2.942(16) 3_545 N
O4 BA1 2.942(16) 5_665 N
O4 BA2 2.830(21) 1_555 N
O4 BA2 2.830(21) 7_555 N
O4 TA1 2.123(19) 1_555 N
O4 TA1 2.123(19) 7_555 N
data_A_BA4TA2O9_RT_phase_2
_publ_contact_author_address     ' ?'
_publ_section_title              ' ?'
_publ_section_title_footnote     ' ?'
_journal_coeditor_notes          ' ?'
_journal_techeditor_notes        ' ?'
_chemical_formula_sum            Nb
_chemical_formula_weight         92.91
_chemical_name_systematic        ' ?'
_symmetry_cell_setting           cubic
_symmetry_space_group_name_H-M   'I m 3 m'
_audit_author_name               'Chris Ling'
_audit_creation_date             2009-08-27T22:46
_audit_creation_method           'from EXP file using GSAS2CIF'
_audit_update_record
' 2009-08-27T22:46  Initial CIF as created by GSAS2CIF'
_cell_angle_alpha                90.0
_cell_angle_beta                 90.0
_cell_angle_gamma                90.0
_cell_formula_units_Z            2
_cell_length_a                   3.30121(10)
_cell_length_b                   3.30121
_cell_length_c                   3.30121
_cell_volume                     35.9770(30)
_computing_structure_refinement  GSAS
_pd_block_id
2009-08-27T22:46|A_BA4TA2O9_RT_phase2|Chris_Ling||
_pd_phase_name
'from /Users/Chris/Desktop/a_Ba4Ta2O9/A-BA4NB2O9_1273K.EXP'
_refine_ls_goodness_of_fit_all   5.87
_refine_ls_matrix_type           full
_refine_ls_number_parameters     40
_refine_ls_number_restraints     0
_refine_ls_shift/su_max          0.04
_refine_ls_shift/su_mean         0.01
loop_
_symmetry_equiv_pos_site_id
_symmetry_equiv_pos_as_xyz
1 +x,+y,+z
2 +z,+x,+y
3 +y,+z,+x
4 +x,+y,-z
5 -z,+x,+y
6 +y,-z,+x
7 -z,+x,-y
8 -y,-z,+x
9 +y,-z,-x
10 -x,+y,-z
11 -z,-x,+y
12 +x,-y,-z
13 +y,+x,+z
14 +z,+y,+x
15 +x,+z,+y
16 +y,+x,-z
17 -z,+y,+x
18 +x,-z,+y
19 -z,+y,-x
20 -x,-z,+y
21 +x,-z,-y
22 -y,+x,-z
23 -z,-y,+x
24 +y,-x,-z
-1 -x,-y,-z
-2 -z,-x,-y
-3 -y,-z,-x
-4 -x,-y,+z
-5 +z,-x,-y
-6 -y,+z,-x
-7 +z,-x,+y
-8 +y,+z,-x
-9 -y,+z,+x
-10 +x,-y,+z
-11 +z,+x,-y
-12 -x,+y,+z
-13 -y,-x,-z
-14 -z,-y,-x
-15 -x,-z,-y
-16 -y,-x,+z
-17 +z,-y,-x
-18 -x,+z,-y
-19 +z,-y,+x
-20 +x,+z,-y
-21 -x,+z,+y
-22 +y,-x,+z
-23 +z,+y,-x
-24 -y,+x,+z
101 +x+1/2,+y+1/2,+z+1/2
102 +z+1/2,+x+1/2,+y+1/2
103 +y+1/2,+z+1/2,+x+1/2
104 +x+1/2,+y+1/2,-z+1/2
105 -z+1/2,+x+1/2,+y+1/2
106 +y+1/2,-z+1/2,+x+1/2
107 -z+1/2,+x+1/2,-y+1/2
108 -y+1/2,-z+1/2,+x+1/2
109 +y+1/2,-z+1/2,-x+1/2
110 -x+1/2,+y+1/2,-z+1/2
111 -z+1/2,-x+1/2,+y+1/2
112 +x+1/2,-y+1/2,-z+1/2
113 +y+1/2,+x+1/2,+z+1/2
114 +z+1/2,+y+1/2,+x+1/2
115 +x+1/2,+z+1/2,+y+1/2
116 +y+1/2,+x+1/2,-z+1/2
117 -z+1/2,+y+1/2,+x+1/2
118 +x+1/2,-z+1/2,+y+1/2
119 -z+1/2,+y+1/2,-x+1/2
120 -x+1/2,-z+1/2,+y+1/2
121 +x+1/2,-z+1/2,-y+1/2
122 -y+1/2,+x+1/2,-z+1/2
123 -z+1/2,-y+1/2,+x+1/2
124 +y+1/2,-x+1/2,-z+1/2
-101 -x+1/2,-y+1/2,-z+1/2
-102 -z+1/2,-x+1/2,-y+1/2
-103 -y+1/2,-z+1/2,-x+1/2
-104 -x+1/2,-y+1/2,+z+1/2
-105 +z+1/2,-x+1/2,-y+1/2
-106 -y+1/2,+z+1/2,-x+1/2
-107 +z+1/2,-x+1/2,+y+1/2
-108 +y+1/2,+z+1/2,-x+1/2
-109 -y+1/2,+z+1/2,+x+1/2
-110 +x+1/2,-y+1/2,+z+1/2
-111 +z+1/2,+x+1/2,-y+1/2
-112 -x+1/2,+y+1/2,+z+1/2
-113 -y+1/2,-x+1/2,-z+1/2
-114 -z+1/2,-y+1/2,-x+1/2
-115 -x+1/2,-z+1/2,-y+1/2
-116 -y+1/2,-x+1/2,+z+1/2
-117 +z+1/2,-y+1/2,-x+1/2
-118 -x+1/2,+z+1/2,-y+1/2
-119 +z+1/2,-y+1/2,+x+1/2
-120 +x+1/2,+z+1/2,-y+1/2
-121 -x+1/2,+z+1/2,+y+1/2
-122 +y+1/2,-x+1/2,+z+1/2
-123 +z+1/2,+y+1/2,-x+1/2
-124 -y+1/2,+x+1/2,+z+1/2
loop_
_atom_site_type_symbol
_atom_site_label
_atom_site_fract_x
_atom_site_fract_y
_atom_site_fract_z
_atom_site_occupancy
_atom_site_thermal_displace_type
_atom_site_U_iso_or_equiv
_atom_site_symmetry_multiplicity
Nb Nb 0.0 0.0 0.0 1.0 Uiso 0.0187(8) 2
loop_
_atom_type_symbol
_atom_type_number_in_cell
Nb 2.0
loop_
_geom_angle_atom_site_label_1
_geom_angle_atom_site_label_2
_geom_angle_atom_site_label_3
_geom_angle
_geom_angle_site_symmetry_1
_geom_angle_site_symmetry_3
_geom_angle_publ_flag
Nb Nb Nb 70.5288(24) 101_444 101_445 N
Nb Nb Nb 70.5288(12) 101_444 101_454 N
Nb Nb Nb 109.4712(12) 101_444 101_455 N
Nb Nb Nb 70.5288(12) 101_444 101_544 N
Nb Nb Nb 109.4712(12) 101_444 101_545 N
Nb Nb Nb 109.4712(24) 101_444 101_554 N
Nb Nb Nb 179.9604 101_444 101_555 N
Nb Nb Nb 109.4712(12) 101_445 101_454 N
Nb Nb Nb 70.5288(12) 101_445 101_455 N
Nb Nb Nb 109.4712(12) 101_445 101_544 N
Nb Nb Nb 70.5288(12) 101_445 101_545 N
Nb Nb Nb 180.0 101_445 101_554 N
Nb Nb Nb 109.4712(24) 101_445 101_555 N
Nb Nb Nb 70.5288(24) 101_454 101_455 N
Nb Nb Nb 109.4712(24) 101_454 101_544 N
Nb Nb Nb 180.0 101_454 101_545 N
Nb Nb Nb 70.5288(12) 101_454 101_554 N
Nb Nb Nb 109.4712(12) 101_454 101_555 N
Nb Nb Nb 180.0 101_455 101_544 N
Nb Nb Nb 109.4712(24) 101_455 101_545 N
Nb Nb Nb 109.4712(12) 101_455 101_554 N
Nb Nb Nb 70.5288(12) 101_455 101_555 N
Nb Nb Nb 70.5288(24) 101_544 101_545 N
Nb Nb Nb 70.5288(12) 101_544 101_554 N
Nb Nb Nb 109.4712(12) 101_544 101_555 N
Nb Nb Nb 109.4712(12) 101_545 101_554 N
Nb Nb Nb 70.5288(12) 101_545 101_555 N
Nb Nb Nb 70.5288(24) 101_554 101_555 N
loop_
_geom_bond_atom_site_label_1
_geom_bond_atom_site_label_2
_geom_bond_distance
_geom_bond_site_symmetry_2
_geom_bond_publ_flag
Nb Nb 3.30121(10) 1_455 N
Nb Nb 3.30121(10) 1_545 N
Nb Nb 3.30121(10) 1_554 N
Nb Nb 3.30121(10) 1_556 N
Nb Nb 3.30121(10) 1_565 N
Nb Nb 3.30121(10) 1_655 N
Nb Nb 2.85893(7) 101_444 N
Nb Nb 2.85893(7) 101_445 N
Nb Nb 2.85893(7) 101_454 N
Nb Nb 2.85893(7) 101_455 N
Nb Nb 2.85893(7) 101_544 N
Nb Nb 2.85893(7) 101_545 N
Nb Nb 2.85893(7) 101_554 N
Nb Nb 2.85893(7) 101_555 N
loop_
_pd_block_diffractogram_id
2009-08-27T22:46|A_BA4TA2O9_RT_H_01|Chris_Ling|SPODI
2009-08-27T22:46|A_BA4TA2O9_RT_H_02|Chris_Ling|SPODI
data_A_BA4TA2O9_RT_p_01
_publ_contact_author_address     ' ?'
_publ_section_title              ' ?'
_publ_section_title_footnote     ' ?'
_journal_coeditor_notes          ' ?'
_journal_techeditor_notes        ' ?'
_audit_author_name               'Chris Ling'
_audit_creation_date             2009-08-27T22:46
_audit_creation_method           'from EXP file using GSAS2CIF'
_audit_update_record
' 2009-08-27T22:46  Initial CIF as created by GSAS2CIF'
_computing_structure_refinement  GSAS
_diffrn_radiation_probe          neutron
_diffrn_radiation_wavelength     1.5482
_exptl_absorpt_correction_T_max  0.19468
_exptl_absorpt_correction_T_min  0.08769
_exptl_absorpt_process_details
;   GSAS Absorption/surface roughness correction: function number 0
 Debye-Scherrer absorption correction
Term (= MU.r/wave) =      1.0000    
Correction is not refined.
;
_pd_block_id
2009-08-27T22:46|A_BA4TA2O9_RT_H_01|Chris_Ling|SPODI
_pd_calc_method                  'Rietveld Refinement'
_pd_instr_location               ' ?'
_pd_meas_2theta_range_inc        0.05
_pd_meas_2theta_range_max        151.95
_pd_meas_2theta_range_min        0.0
_pd_meas_number_of_points        3040
_pd_proc_2theta_range_inc        0.05
_pd_proc_2theta_range_max        151.7111
_pd_proc_2theta_range_min        -0.2389
_pd_proc_info_datetime           2009-08-27T22:46:27
_pd_proc_info_excluded_regions   ' ?'
_pd_proc_ls_background_function
;   GSAS Background function number 1 with  8 terms.
 Shifted Chebyshev function of 1st kind
      1:    3066.92     2:    515.894     3:    329.581     4:   -81.1684    
      5:   -66.7883     6:   -202.343     7:    25.2046     8:    152.255    
;
_pd_proc_ls_prof_R_factor        0.0757
_pd_proc_ls_prof_wR_expected     0.0164
_pd_proc_ls_prof_wR_factor       0.0957
_pd_proc_number_of_points        3040
_pd_spec_mounting                ' ?'
_refine_ls_goodness_of_fit_all   5.87
_refine_ls_matrix_type           full
_refine_ls_number_parameters     40
_refine_ls_number_restraints     0
_refine_ls_R_Fsqd_factor         0.12641
_refine_ls_shift/su_max          0.04
_refine_ls_shift/su_mean         0.01
_reflns_d_resolution_high        0.807
_reflns_d_resolution_low         8.893
_reflns_limit_h_max              11
_reflns_limit_h_min              0
_reflns_limit_k_max              6
_reflns_limit_k_min              0
_reflns_limit_l_max              10
_reflns_limit_l_min              0
_reflns_number_total             338
#BEGIN Tags that were not found in dictionaries:
_gsas_exptl_extinct_corr_t_min   1.00000
_gsas_exptl_extinct_corr_t_max   1.00000
#END Tags that were not found in dictionaries
loop_
_atom_type_symbol
_atom_type_scat_length_neutron
_atom_type_scat_source
Ba 0.5070 International_Tables_Vol_C
Ta 0.6910 International_Tables_Vol_C
O 0.5803 International_Tables_Vol_C
Nb 0.7054 International_Tables_Vol_C
loop_
_pd_meas_intensity_total
_pd_proc_ls_weight
_pd_proc_intensity_bkg_calc
_pd_calc_intensity_total
0.0(10) 0.0 2665.73 .
0.0(10) 0.0 2671.62 .
0.0(10) 0.0 2677.44 .
0.0(10) 0.0 2683.19 .
0.0(10) 0.0 2688.87 .
0.0(10) 0.0 2694.48 .
0.0(10) 0.0 2700.03 .
0.0(10) 0.0 2705.50 .
0.0(10) 0.0 2710.90 .
0.0(10) 0.0 2716.24 .
0.0(10) 0.0 2721.51 .
0.0(10) 0.0 2726.71 .
0.0(10) 0.0 2731.85 .
0.0(10) 0.0 2736.92 .
0.0(10) 0.0 2741.93 .
0.0(10) 0.0 2746.87 .
0.0(10) 0.0 2751.74 .
0.0(10) 0.0 2756.55 .
0.0(10) 0.0 2761.30 .
12430(960) 0.0 2766. .
12790(970) 0.0 2771. .
12000(930) 0.0 2775. .
12680(950) 0.0 2780. .
12490(940) 0.0 2784. .
13140(950) 0.0 2788. .
12680(930) 0.0 2793. .
12570(920) 0.0 2797. .
12550(910) 0.0 2801. .
13260(930) 0.0 2805. .
13060(920) 0.0 2809. .
12920(910) 0.0 2813. .
13140(910) 0.0 2817. .
12960(900) 0.0 2821. .
12790(880) 0.0 2825. .
12450(870) 0.0 2829. .
12430(860) 0.0 2833. .
12030(840) 0.0 2836. .
11460(820) 0.0 2840. .
11380(810) 0.0 2843. .
10480(770) 0.0 2847. .
9500(730) 0.0 2850. .
9440(720) 0.0 2854. .
9700(730) 0.0 2857. .
8760(690) 0.0 2860. .
8000(650) 0.0 2864. .
7360(620) 0.0 2867. .
6560(580) 0.0 2870. .
5970(550) 0.0 2873. .
5520(530) 0.0 2876. .
5000(500) 0.0 2879. .
5360(510) 0.0 2882. .
5360(510) 0.0 2885. .
4900(490) 0.0 2888. .
4360(460) 0.0 2890. .
4430(460) 0.0 2893. .
4480(460) 0.0 2896. .
4190(440) 0.0 2898. .
3960(420) 0.0 2901. .
3810(410) 0.0 2903. .
4040(420) 0.0 2906. .
3900(410) 0.0 2908. .
3920(410) 0.0 2911. .
3600(390) 0.0 2913. .
3550(390) 0.0 2915. .
3640(390) 0.0 2917. .
3720(390) 0.0 2920. .
4070(410) 0.0 2922. .
4030(410) 0.0 2924. .
4270(420) 0.0 2926. .
4260(410) 0.0 2928. .
4210(410) 0.0 2930. .
4610(420) 0.0 2932. .
4210(400) 0.0 2934. .
4140(400) 0.0 2935. .
4040(390) 0.0 2937. .
3960(390) 0.0 2939. .
3850(380) 0.0 2941. .
4070(390) 0.0 2942. .
4430(400) 0.0 2944. .
4180(390) 0.0 2946. .
4130(380) 0.0 2947. .
3900(370) 0.0 2949. .
4190(380) 0.0 2950. .
3970(370) 0.0 2951. .
3570(350) 0.0 2953. .
3920(360) 0.0 2954. .
3780(360) 0.0 2955. .
3710(350) 0.0 2957. .
3910(360) 0.0 2958. .
3900(360) 0.0 2959. .
3870(350) 0.0 2960. .
3920(350) 0.0 2961. .
3740(340) 0.0 2962. .
3580(330) 0.0 2963. .
3590(330) 0.0 2964. .
3510(330) 0.0 2965. .
3720(340) 0.0 2966. .
3430(320) 0.0 2967. .
3510(320) 0.0 2968. .
3580(330) 0.0 2969. .
3500(320) 0.0 2970. .
3410(310) 0.00001014 2970. 2970.
3430(310) 0.00001014 2971. 2971.
3570(320) 9.83e-6 2972. 2972.
3490(310) 0.00001014 2972. 2972.
3570(320) 0.00001001 2973. 2973.
3730(320) 9.70e-6 2973. 2973.
3510(310) 0.00001041 2974. 2974.
3320(300) 0.00001111 2974. 2975.
3460(310) 0.00001075 2975. 2975.
3430(300) 0.00001089 2975. 2975.
3510(310) 0.00001075 2976. 2976.
3350(300) 0.00001134 2976. 2976.
3300(290) 0.00001165 2977. 2977.
3340(290) 0.00001157 2977. 2977.
3490(300) 0.00001119 2977. 2977.
3450(300) 0.00001141 2977. 2977.
3300(290) 0.00001206 2978. 2978.
3480(300) 0.00001149 2978. 2978.
3470(290) 0.00001165 2978. 2978.
3470(290) 0.00001181 2978. 2978.
3370(290) 0.00001223 2978. 2978.
3310(280) 0.00001249 2978. 2978.
3270(280) 0.00001285 2978. 2978.
3420(280) 0.00001240 2978. 2978.
3360(280) 0.00001266 2978. 2978.
3370(280) 0.00001276 2978. 2978.
3180(270) 0.00001362 2978. 2978.
3460(280) 0.00001257 2978. 2978.
3240(270) 0.00001362 2978. 2978.
3390(280) 0.00001313 2978. 2978.
3280(270) 0.00001362 2978. 2978.
3080(260) 0.00001468 2977. 2977.
3170(260) 0.00001435 2977. 2977.
3380(270) 0.00001352 2977. 2977.
3280(270) 0.00001403 2977. 2977.
3070(260) 0.00001514 2976. 2976.
2870(250) 0.00001639 2976. 2976.
2780(240) 0.00001708 2976. 2976.
2780(240) 0.00001722 2975. 2975.
3080(250) 0.00001562 2975. 2975.
3010(250) 0.00001613 2975. 2975.
3170(260) 0.00001538 2974. 2974.
3180(250) 0.00001550 2974. 2974.
3100(250) 0.00001600 2973. 2973.
3120(250) 0.00001600 2973. 2973.
3200(250) 0.00001575 2972. 2972.
3310(260) 0.00001538 2971. 2971.
3250(250) 0.00001575 2971. 2971.
3280(250) 0.00001575 2970. 2970.
3200(250) 0.00001626 2970. 2970.
3400(260) 0.00001538 2969. 2969.
3820(270) 0.00001382 2968. 2968.
3650(260) 0.00001457 2968. 2968.
3580(260) 0.00001491 2967. 2967.
3610(260) 0.00001491 2966. 2966.
3620(260) 0.00001502 2965. 2965.
3870(270) 0.00001413 2965. 2965.
3690(260) 0.00001491 2964. 2964.
3350(250) 0.00001652 2963. 2963.
3230(240) 0.00001736 2962. 2962.
2980(230) 0.00001890 2961. 2961.
2830(220) 0.00002011 2960. 2960.
3100(230) 0.00001842 2959. 2959.
3070(230) 0.00001874 2959. 2959.
2940(230) 0.00001975 2958. 2958.
3080(230) 0.00001890 2957. 2957.
3260(240) 0.00001811 2956. 2956.
2840(220) 0.00002085 2955. 2955.
2790(220) 0.00002143 2954. 2954.
3040(230) 0.00001975 2953. 2953.
2940(220) 0.00002066 2952. 2952.
2810(220) 0.00002163 2951. 2951.
2720(210) 0.00002268 2949. 2949.
2890(220) 0.00002143 2948. 2948.
2600(200) 0.00002403 2947. 2947.
2710(210) 0.00002311 2946. 2946.
2720(210) 0.00002334 2945. 2945.
2500(200) 0.00002551 2944. 2944.
2840(210) 0.00002246 2943. 2943.
2760(210) 0.00002334 2941. 2942.
2890(210) 0.00002246 2940. 2940.
2560(200) 0.00002551 2939. 2939.
2510(200) 0.00002630 2938. 2938.
2520(200) 0.00002630 2937. 2937.
2840(210) 0.00002356 2935. 2935.
2880(210) 0.00002334 2934. 2934.
2580(200) 0.00002630 2933. 2933.
2780(200) 0.00002451 2931. 2931.
2760(200) 0.00002475 2930. 2930.
2520(190) 0.00002741 2929. 2929.
2470(190) 0.00002799 2927. 2927.
2850(200) 0.00002451 2926. 2926.
2690(200) 0.00002630 2925. 2925.
2470(190) 0.00002860 2923. 2923.
2540(190) 0.00002799 2922. 2922.
2730(200) 0.00002630 2920. 2921.
2680(190) 0.00002685 2919. 2921.
2630(190) 0.00002770 2918. 2920.
2690(190) 0.00002713 2916. 2920.
2460(180) 0.00002986 2915. 2921.
2750(190) 0.00002685 2913. 2922.
2680(190) 0.00002799 2912. 2923.
2700(190) 0.00002770 2910. 2924.
2550(180) 0.00002954 2909. 2924.
2500(180) 0.00003052 2907. 2922.
2700(190) 0.00002829 2906. 2920.
2620(180) 0.00002954 2904. 2916.
2590(180) 0.00002986 2903. 2912.
2760(190) 0.00002829 2901. 2908.
2600(180) 0.00003019 2899. 2904.
2340(170) 0.00003380 2898. 2900.
2460(180) 0.00003228 2896. 2898.
2650(180) 0.00003019 2895. 2895.
2650(180) 0.00003052 2893. 2893.
2820(190) 0.00002860 2891. 2892.
2770(190) 0.00002922 2890. 2890.
2760(180) 0.00002954 2888. 2888.
3020(190) 0.00002741 2887. 2887.
2950(190) 0.00002799 2885. 2885.
2910(190) 0.00002860 2883. 2883.
3060(190) 0.00002741 2882. 2882.
3050(190) 0.00002770 2880. 2880.
3050(190) 0.00002799 2878. 2878.
3140(190) 0.00002713 2877. 2877.
3420(200) 0.00002525 2875. 2875.
3470(200) 0.00002500 2873. 2873.
3340(200) 0.00002603 2871. 2871.
3350(200) 0.00002603 2870. 2870.
3150(190) 0.00002799 2868. 2868.
2950(180) 0.00003019 2866. 2866.
2940(180) 0.00003019 2864. 2864.
2890(180) 0.00003121 2863. 2863.
2830(180) 0.00003192 2861. 2861.
2910(180) 0.00003121 2859. 2859.
2830(180) 0.00003228 2857. 2857.
2920(180) 0.00003156 2856. 2856.
2790(170) 0.00003303 2854. 2854.
2880(180) 0.00003228 2852. 2852.
2870(180) 0.00003265 2850. 2850.
2800(170) 0.00003341 2848. 2848.
2790(170) 0.00003380 2847. 2847.
2800(170) 0.00003420 2845. 2845.
2800(170) 0.00003420 2843. 2843.
2760(170) 0.00003501 2841. 2841.
2550(160) 0.0000381 2839. 2839.
2750(170) 0.0000354 2838. 2838.
2730(170) 0.0000359 2836. 2836.
2700(170) 0.0000363 2834. 2834.
2630(160) 0.0000376 2832. 2832.
2660(160) 0.0000376 2830. 2830.
2750(170) 0.0000363 2828. 2828.
2810(170) 0.0000359 2827. 2827.
2720(160) 0.0000372 2825. 2825.
2750(160) 0.0000372 2823. 2823.
2720(160) 0.0000376 2821. 2821.
2670(160) 0.0000386 2819. 2819.
2540(160) 0.0000406 2817. 2817.
2630(160) 0.0000396 2815. 2815.
2890(170) 0.0000363 2813. 2813.
3000(170) 0.00003501 2812. 2812.
2800(160) 0.0000376 2810. 2810.
2740(160) 0.0000386 2808. 2808.
2790(160) 0.0000381 2806. 2806.
3020(170) 0.0000354 2804. 2804.
2730(160) 0.0000396 2802. 2802.
2820(160) 0.0000386 2800. 2800.
2840(160) 0.0000386 2798. 2809.
2860(160) 0.0000386 2796. 2808.
2990(160) 0.0000372 2795. 2807.
2910(160) 0.0000381 2793. 2806.
3050(170) 0.0000367 2791. 2805.
3050(170) 0.0000367 2789. 2804.
3310(170) 0.00003420 2787. 2804.
3220(170) 0.0000354 2785. 2803.
3040(160) 0.0000376 2783. 2803.
3310(170) 0.00003460 2781. 2804.
3540(180) 0.00003265 2779. 2804.
3820(180) 0.00003019 2777. 2805.
3840(180) 0.00003019 2775. 2807.
4040(190) 0.00002891 2774. 2810.
4100(190) 0.00002860 2772. 2814.
4260(190) 0.00002770 2770. 2824.
4340(190) 0.00002741 2768. 2845.
4690(200) 0.00002551 2766. 2892.
4850(200) 0.00002475 2764. 2995.
5140(210) 0.00002356 2762. 3203.
5490(210) 0.00002204 2760. 3594.
5880(220) 0.00002085 2758. 4263.
6450(230) 0.00001907 2756. 5294.
6770(230) 0.00001826 2754. 6722.
6940(240) 0.00001780 2753. 8474.
7570(250) 0.00001639 2751. 10341.
7600(250) 0.00001652 2749. 11996.
7780(250) 0.00001613 2747. 13074.
7280(240) 0.00001736 2745. 13297.
7170(240) 0.00001765 2743. 12602.
6520(230) 0.00001958 2741. 11177.
5910(220) 0.00002163 2739. 9363.
5220(200) 0.00002475 2737. 7517.
4750(190) 0.00002741 2735. 5913.
4480(190) 0.00002922 2733. 4685.
4100(180) 0.00003192 2732. 3847.
3870(170) 0.00003420 2730. 3332.
3740(170) 0.0000354 2728. 3042.
3640(170) 0.0000367 2726. 2893.
3430(160) 0.0000391 2724. 2820.
3200(150) 0.0000422 2722. 2785.
3290(160) 0.0000411 2720. 2768.
2980(150) 0.0000457 2718. 2757.
2990(150) 0.0000457 2716. 2750.
2830(140) 0.0000489 2715. 2744.
3040(150) 0.0000457 2713. 2739.
3010(150) 0.0000463 2711. 2734.
2850(140) 0.0000489 2709. 2730.
2740(140) 0.0000510 2707. 2726.
2720(140) 0.0000518 2705. 2723.
2700(140) 0.0000525 2703. 2720.
2790(140) 0.0000510 2702. 2724.
2640(140) 0.0000541 2700. 2722.
2590(130) 0.0000557 2698. 2720.
2760(140) 0.0000525 2696. 2717.
2830(140) 0.0000510 2694. 2715.
2840(140) 0.0000510 2692. 2703.
2870(140) 0.0000510 2690. 2702.
2860(140) 0.0000518 2689. 2701.
2590(130) 0.0000574 2687. 2701.
2680(130) 0.0000557 2685. 2700.
2610(130) 0.0000574 2683. 2699.
2650(130) 0.0000565 2681. 2699.
2740(140) 0.0000549 2679. 2699.
2690(130) 0.0000565 2678. 2699.
2480(130) 0.0000610 2676. 2699.
2490(130) 0.0000610 2674. 2700.
2490(130) 0.0000620 2672. 2701.
2560(130) 0.0000601 2670. 2702.
2610(130) 0.0000592 2669. 2705.
2490(130) 0.0000630 2667. 2708.
2430(130) 0.0000640 2665. 2714.
2620(130) 0.0000601 2663. 2724.
2540(130) 0.0000620 2662. 2746.
2600(130) 0.0000610 2660. 2794.
2810(130) 0.0000565 2658. 2896.
3040(140) 0.0000525 2656. 3104.
3450(150) 0.0000463 2655. 3491.
4180(160) 0.0000386 2653. 4151.
5260(180) 0.00003086 2651. 5166.
7340(210) 0.00002225 2649. 6563.
9460(240) 0.00001722 2648. 8262.
11720(270) 0.00001403 2646. 10050.
13900(290) 0.00001181 2644. 11600.
14660(300) 0.00001126 2642. 12555.
14280(290) 0.00001165 2641. 12658.
13080(280) 0.00001276 2639. 11878.
10830(250) 0.00001550 2637. 10431.
8230(220) 0.00002047 2636. 8662.
6190(190) 0.00002741 2634. 6915.
4660(170) 0.0000367 2632. 5434.
4190(160) 0.0000411 2631. 4327.
3670(150) 0.0000469 2629. 3589.
3430(140) 0.0000503 2627. 3144.
3130(130) 0.0000557 2626. 2900.
3110(130) 0.0000565 2624. 2776.
2820(130) 0.0000620 2622. 2715.
2850(130) 0.0000620 2621. 2686.
2640(120) 0.0000672 2619. 2670.
2560(120) 0.0000694 2617. 2660.
2510(120) 0.0000718 2616. 2653.
2440(120) 0.0000743 2614. 2647.
2190(110) 0.0000826 2612. 2642.
2440(120) 0.0000743 2611. 2637.
2390(120) 0.0000756 2609. 2633.
2330(110) 0.0000783 2608. 2629.
2580(120) 0.0000706 2606. 2626.
2620(120) 0.0000706 2605. 2623.
2530(120) 0.0000731 2603. 2620.
2450(120) 0.0000756 2601. 2617.
2720(120) 0.0000683 2600. 2614.
2620(120) 0.0000718 2598. 2611.
2530(120) 0.0000743 2597. 2609.
2650(120) 0.0000718 2595. 2607.
2650(120) 0.0000718 2594. 2604.
2730(120) 0.0000694 2592. 2602.
2610(120) 0.0000731 2591. 2600.
2650(120) 0.0000731 2589. 2598.
2560(120) 0.0000756 2588. 2588.
2570(120) 0.0000756 2586. 2586.
2410(110) 0.0000812 2585. 2585.
2410(110) 0.0000812 2583. 2583.
2470(110) 0.0000797 2582. 2582.
2610(120) 0.0000756 2580. 2580.
2750(120) 0.0000718 2579. 2579.
2760(120) 0.0000718 2577. 2578.
2890(120) 0.0000694 2576. 2577.
2720(120) 0.0000743 2574. 2576.
2700(120) 0.0000743 2573. 2574.
2980(120) 0.0000683 2572. 2573.
2920(120) 0.0000694 2570. 2572.
3110(120) 0.0000661 2569. 2570.
2960(120) 0.0000694 2567. 2569.
2720(120) 0.0000756 2566. 2568.
2740(120) 0.0000756 2565. 2567.
2850(120) 0.0000731 2563. 2566.
2730(110) 0.0000769 2562. 2565.
2720(110) 0.0000769 2560. 2564.
2570(110) 0.0000826 2559. 2563.
2650(110) 0.0000797 2558. 2561.
2750(110) 0.0000769 2556. 2560.
2790(110) 0.0000769 2555. 2559.
2720(110) 0.0000783 2554. 2558.
2670(110) 0.0000812 2552. 2557.
2700(110) 0.0000797 2551. 2556.
2480(110) 0.0000873 2550. 2556.
2670(110) 0.0000812 2549. 2555.
2810(110) 0.0000783 2547. 2556.
2670(110) 0.0000826 2546. 2559.
2580(110) 0.0000857 2545. 2565.
2740(110) 0.0000812 2544. 2580.
2770(110) 0.0000797 2542. 2611.
2670(110) 0.0000842 2541. 2666.
2630(110) 0.0000857 2540. 2754.
2900(110) 0.0000783 2539. 2881.
2750(110) 0.0000826 2537. 3044.
2760(110) 0.0000826 2536. 3226.
2850(110) 0.0000797 2535. 3395.
2910(110) 0.0000783 2534. 3515.
2890(110) 0.0000797 2533. 3552.
2940(110) 0.0000783 2531. 3496.
2880(110) 0.0000812 2530. 3362.
2840(110) 0.0000826 2529. 3185.
2900(110) 0.0000812 2528. 3003.
2830(110) 0.0000826 2527. 2843.
2890(110) 0.0000812 2526. 2726.
2680(110) 0.0000890 2525. 2643.
2740(110) 0.0000873 2523. 2592.
2660(110) 0.0000890 2522. 2563.
2540(100) 0.0000943 2521. 2548.
2530(100) 0.0000943 2520. 2541.
2710(110) 0.0000890 2519. 2537.
2720(110) 0.0000890 2518. 2535.
2550(100) 0.0000961 2517. 2533.
2510(100) 0.0000980 2516. 2532.
2550(100) 0.0000961 2515. 2532.
2650(100) 0.0000925 2514. 2531.
2630(100) 0.0000943 2513. 2531.
2580(100) 0.0000961 2512. 2531.
2680(100) 0.0000925 2511. 2532.
2730(100) 0.0000925 2510. 2534.
2820(110) 0.0000890 2509. 2538.
2770(110) 0.0000907 2508. 2547.
2920(110) 0.0000873 2507. 2565.
2900(110) 0.0000873 2506. 2598.
2830(110) 0.0000907 2505. 2653.
2960(110) 0.0000873 2504. 2736.
3140(110) 0.0000812 2503. 2848.
3150(110) 0.0000826 2502. 2981.
3400(120) 0.0000756 2501. 3116.
3380(110) 0.0000769 2500. 3227.
3330(110) 0.0000783 2499. 3286.
3430(110) 0.0000769 2498. 3279.
3630(120) 0.0000731 2497. 3215.
3560(120) 0.0000743 2497. 3120.
3840(120) 0.0000694 2496. 3041.
3970(120) 0.0000672 2495. 3029.
4080(120) 0.0000650 2494. 3148.
4560(130) 0.0000592 2493. 3465.
4660(130) 0.0000574 2492. 4045.
4910(140) 0.0000549 2492. 4919.
5480(140) 0.0000496 2491. 6056.
5820(150) 0.0000469 2490. 7327.
6150(150) 0.0000444 2489. 8510.
6530(150) 0.0000422 2488. 9335.
6510(150) 0.0000422 2488. 9572.
6230(150) 0.0000444 2487. 9147.
5810(150) 0.0000476 2486. 8188.
5200(140) 0.0000533 2485. 6947.
4830(130) 0.0000583 2484. 5686.
4220(120) 0.0000661 2484. 4597.
3870(120) 0.0000731 2483. 3775.
3660(110) 0.0000769 2482. 3222.
3340(110) 0.0000857 2482. 2888.
3260(110) 0.0000873 2481. 2704.
3000(100) 0.0000961 2480. 2610.
2940(100) 0.0000980 2480. 2564.
2910(100) 0.0001000 2479. 2541.
2809(98) 0.0001041 2478. 2528.
2644(95) 0.0001108 2478. 2520.
2688(96) 0.0001085 2477. 2514.
2700(96) 0.0001085 2476. 2509.
2543(93) 0.0001156 2476. 2505.
2424(90) 0.0001235 2475. 2501.
2378(89) 0.0001262 2474. 2498.
2537(92) 0.0001181 2474. 2495.
2483(91) 0.0001208 2473. 2493.
2591(93) 0.0001156 2473. 2491.
2512(91) 0.0001208 2472. 2488.
2474(90) 0.0001235 2471. 2487.
2344(88) 0.0001291 2471. 2485.
2369(88) 0.0001291 2470. 2484.
2423(89) 0.0001262 2470. 2483.
2288(86) 0.0001352 2469. 2482.
2329(87) 0.0001321 2469. 2481.
2372(88) 0.0001291 2468. 2480.
2348(87) 0.0001321 2468. 2479.
2221(84) 0.0001417 2467. 2478.
2307(86) 0.0001352 2467. 2477.
2282(85) 0.0001384 2466. 2476.
2305(85) 0.0001384 2466. 2476.
2284(85) 0.0001384 2465. 2475.
2343(86) 0.0001352 2465. 2474.
2203(83) 0.0001452 2465. 2474.
2272(84) 0.0001417 2464. 2468.
2357(86) 0.0001352 2464. 2468.
2357(85) 0.0001384 2463. 2469.
2346(85) 0.0001384 2463. 2469.
2284(84) 0.0001417 2462. 2469.
2461(87) 0.0001321 2462. 2470.
2486(87) 0.0001321 2462. 2470.
2382(85) 0.0001384 2461. 2470.
2435(86) 0.0001352 2461. 2471.
2469(86) 0.0001352 2461. 2471.
2422(85) 0.0001384 2460. 2472.
2388(85) 0.0001384 2460. 2473.
2487(86) 0.0001352 2460. 2474.
2403(85) 0.0001384 2459. 2476.
2565(87) 0.0001321 2459. 2479.
2498(86) 0.0001352 2459. 2484.
2592(87) 0.0001321 2458. 2494.
2576(87) 0.0001321 2458. 2514.
2636(88) 0.0001291 2458. 2554.
2708(89) 0.0001262 2458. 2629.
2841(91) 0.0001208 2457. 2756.
2696(88) 0.0001291 2457. 2952.
2988(93) 0.0001156 2457. 3222.
3135(95) 0.0001108 2457. 3546.
3232(96) 0.0001085 2456. 3880.
3234(96) 0.0001085 2456. 4157.
3132(94) 0.0001132 2456. 4305.
3215(95) 0.0001108 2456. 4279.
3196(95) 0.0001108 2456. 4090.
3022(92) 0.0001181 2455. 3791.
3000(92) 0.0001181 2455. 3458.
2832(89) 0.0001262 2455. 3154.
2697(87) 0.0001321 2455. 2921.
2636(85) 0.0001384 2455. 2775.
2712(87) 0.0001321 2455. 2720.
2752(87) 0.0001321 2455. 2756.
2860(89) 0.0001262 2454. 2885.
2899(89) 0.0001262 2454. 3105.
3096(92) 0.0001181 2454. 3405.
3383(96) 0.0001085 2454. 3749.
3522(98) 0.0001041 2454. 4076.
3740(100) 0.0001000 2454. 4309.
3720(100) 0.0001000 2454. 4382.
3526(97) 0.0001063 2454. 4271.
3292(94) 0.0001132 2454. 4010.
3092(91) 0.0001208 2454. 3672.
2943(88) 0.0001291 2454. 3329.
2782(86) 0.0001352 2454. 3035.
2656(84) 0.0001417 2454. 2814.
2688(84) 0.0001417 2454. 2668.
2619(83) 0.0001452 2454. 2580.
2705(84) 0.0001417 2454. 2533.
2668(83) 0.0001452 2454. 2510.
2777(85) 0.0001384 2454. 2503.
2655(83) 0.0001452 2454. 2500.
2776(84) 0.0001417 2454. 2500.
2853(85) 0.0001384 2454. 2503.
2789(84) 0.0001417 2454. 2512.
2730(83) 0.0001452 2454. 2531.
2820(84) 0.0001417 2454. 2570.
2841(85) 0.0001384 2454. 2646.
2805(84) 0.0001417 2454. 2779.
2930(86) 0.0001352 2454. 2989.
2987(86) 0.0001352 2454. 3288.
3097(88) 0.0001291 2455. 3660.
3135(88) 0.0001291 2455. 4060.
3200(89) 0.0001262 2455. 4412.
3192(89) 0.0001262 2455. 4631.
3258(89) 0.0001262 2455. 4653.
3357(91) 0.0001208 2455. 4475.
3355(90) 0.0001235 2455. 4167.
3412(91) 0.0001208 2456. 3826.
3580(93) 0.0001156 2456. 3548.
3542(92) 0.0001181 2456. 3396.
3451(91) 0.0001208 2456. 3395.
3503(92) 0.0001181 2456. 3526.
3607(93) 0.0001156 2457. 3735.
3572(92) 0.0001181 2457. 3944.
3589(92) 0.0001181 2457. 4073.
3639(93) 0.0001156 2457. 4064.
3674(93) 0.0001156 2457. 3912.
3503(91) 0.0001208 2458. 3658.
3442(90) 0.0001235 2458. 3369.
3524(91) 0.0001208 2458. 3099.
3370(88) 0.0001291 2459. 2882.
3244(87) 0.0001321 2459. 2729.
3214(86) 0.0001352 2459. 2635.
3115(85) 0.0001384 2459. 2586.
3015(83) 0.0001452 2460. 2569.
3105(84) 0.0001417 2460. 2580.
3000(83) 0.0001452 2460. 2624.
3090(84) 0.0001417 2461. 2722.
3272(86) 0.0001352 2461. 2911.
3650(91) 0.0001208 2461. 3237.
4199(97) 0.0001063 2462. 3741.
5090(110) 0.0000873 2462. 4432.
5940(120) 0.0000756 2462. 5263.
6900(120) 0.0000650 2463. 6114.
7570(130) 0.0000592 2463. 6806.
8240(140) 0.0000549 2463. 7151.
7980(130) 0.0000565 2464. 7037.
7190(130) 0.0000630 2464. 6503.
6350(120) 0.0000718 2465. 5709.
4990(100) 0.0000925 2465. 4848.
3972(93) 0.0001156 2465. 4073.
3236(84) 0.0001417 2466. 3469.
2876(79) 0.0001602 2466. 3054.
2650(75) 0.0001778 2467. 2796.
2597(74) 0.0001826 2467. 2653.
2523(73) 0.0001877 2468. 2579.
2468(72) 0.0001929 2468. 2543.
2456(72) 0.0001929 2469. 2525.
2431(71) 0.0001984 2469. 2515.
2406(71) 0.0001984 2469. 2509.
2392(71) 0.0001984 2470. 2504.
2403(71) 0.0001984 2470. 2501.
2397(71) 0.0001984 2471. 2498.
2345(70) 0.0002041 2471. 2496.
2300(69) 0.0002100 2472. 2493.
2294(69) 0.0002100 2472. 2492.
2283(68) 0.0002163 2473. 2491.
2327(69) 0.0002100 2474. 2490.
2338(69) 0.0002100 2474. 2489.
2318(69) 0.0002100 2475. 2489.
2364(69) 0.0002100 2475. 2489.
2310(68) 0.0002163 2476. 2489.
2267(67) 0.0002228 2476. 2490.
2389(69) 0.0002100 2477. 2491.
2378(69) 0.0002100 2477. 2494.
2466(70) 0.0002041 2478. 2500.
2463(70) 0.0002041 2479. 2510.
2499(70) 0.0002041 2479. 2526.
2478(70) 0.0002041 2480. 2547.
2555(71) 0.0001984 2480. 2573.
2414(69) 0.0002100 2481. 2599.
2381(68) 0.0002163 2482. 2620.
2545(70) 0.0002041 2482. 2630.
2388(68) 0.0002163 2483. 2626.
2344(67) 0.0002228 2483. 2609.
2409(68) 0.0002163 2484. 2585.
2439(68) 0.0002163 2485. 2560.
2405(68) 0.0002163 2485. 2537.
2323(66) 0.0002296 2486. 2520.
2388(67) 0.0002228 2487. 2509.
2293(66) 0.0002296 2487. 2502.
2383(67) 0.0002228 2488. 2496.
2518(69) 0.0002100 2489. 2494.
2387(67) 0.0002228 2489. 2494.
2368(66) 0.0002296 2490. 2495.
2395(67) 0.0002228 2491. 2496.
2384(66) 0.0002296 2492. 2502.
2386(66) 0.0002296 2492. 2504.
2487(68) 0.0002163 2493. 2507.
2542(68) 0.0002163 2494. 2511.
2472(67) 0.0002228 2494. 2520.
2469(67) 0.0002228 2495. 2535.
2667(70) 0.0002041 2496. 2560.
2800(71) 0.0001984 2497. 2599.
2842(72) 0.0001929 2497. 2653.
3068(74) 0.0001826 2498. 2718.
3136(75) 0.0001778 2499. 2786.
3155(75) 0.0001778 2500. 2842.
3211(76) 0.0001731 2500. 2872.
3219(76) 0.0001731 2501. 2865.
3200(75) 0.0001778 2502. 2825.
3290(76) 0.0001731 2503. 2765.
3081(74) 0.0001826 2504. 2700.
3109(74) 0.0001826 2504. 2642.
2941(72) 0.0001929 2505. 2598.
2890(71) 0.0001984 2506. 2570.
2823(70) 0.0002041 2507. 2555.
2906(71) 0.0001984 2508. 2551.
2911(71) 0.0001984 2508. 2556.
2937(71) 0.0001984 2509. 2567.
3015(72) 0.0001929 2510. 2584.
3020(72) 0.0001929 2511. 2603.
3091(73) 0.0001877 2512. 2621.
3065(72) 0.0001929 2513. 2634.
3001(71) 0.0001984 2513. 2639.
2931(70) 0.0002041 2514. 2637.
2839(69) 0.0002100 2515. 2628.
2889(70) 0.0002041 2516. 2618.
2877(69) 0.0002100 2517. 2609.
2810(68) 0.0002163 2518. 2607.
2803(68) 0.0002163 2519. 2612.
2726(67) 0.0002228 2519. 2631.
2790(68) 0.0002163 2520. 2674.
2902(69) 0.0002100 2521. 2762.
2948(69) 0.0002100 2522. 2936.
3190(72) 0.0001929 2523. 3252.
3542(76) 0.0001731 2524. 3771.
4320(84) 0.0001417 2525. 4538.
5313(93) 0.0001156 2526. 5537.
6620(100) 0.0000943 2527. 6662.
7630(110) 0.0000812 2528. 7714.
8110(110) 0.0000769 2528. 8432.
8540(120) 0.0000731 2529. 8590.
8030(110) 0.0000783 2530. 8132.
7030(110) 0.0000890 2531. 7215.
5861(96) 0.0001085 2532. 6098.
4729(86) 0.0001352 2533. 5018.
3722(76) 0.0001731 2534. 4132.
3104(70) 0.0002041 2535. 3494.
2819(66) 0.0002296 2536. 3086.
2604(64) 0.0002441 2537. 2852.
2540(63) 0.0002520 2538. 2728.
2429(61) 0.0002687 2539. 2667.
2466(62) 0.0002601 2540. 2636.
2458(61) 0.0002687 2541. 2620.
2531(62) 0.0002601 2542. 2611.
2583(63) 0.0002520 2543. 2605.
2673(64) 0.0002441 2544. 2604.
2743(64) 0.0002441 2545. 2602.
2774(65) 0.0002367 2546. 2601.
2755(64) 0.0002441 2547. 2603.
2735(64) 0.0002441 2548. 2607.
2859(65) 0.0002367 2549. 2619.
2912(66) 0.0002296 2550. 2643.
2855(65) 0.0002367 2551. 2690.
2825(65) 0.0002367 2552. 2774.
2954(66) 0.0002296 2553. 2909.
2991(66) 0.0002296 2554. 3100.
3122(68) 0.0002163 2555. 3352.
2998(66) 0.0002296 2556. 3609.
3010(66) 0.0002296 2557. 3830.
3014(66) 0.0002296 2558. 3956.
3071(67) 0.0002228 2559. 3944.
3218(68) 0.0002163 2560. 3799.
3180(68) 0.0002163 2561. 3570.
3114(67) 0.0002228 2562. 3316.
3122(67) 0.0002228 2563. 3089.
3007(65) 0.0002367 2564. 2914.
2909(64) 0.0002441 2565. 2798.
2975(65) 0.0002367 2566. 2732.
3067(66) 0.0002296 2567. 2702.
3069(66) 0.0002296 2568. 2694.
2969(64) 0.0002441 2569. 2695.
2963(64) 0.0002441 2570. 2697.
3021(65) 0.0002367 2572. 2697.
3131(66) 0.0002296 2573. 2694.
3233(67) 0.0002228 2574. 2690.
3297(67) 0.0002228 2575. 2688.
3386(68) 0.0002163 2576. 2687.
3447(69) 0.0002100 2577. 2703.
3450(69) 0.0002100 2578. 2737.
3577(70) 0.0002041 2579. 2799.
3742(71) 0.0001984 2580. 2902.
3942(73) 0.0001877 2581. 3058.
4171(75) 0.0001778 2582. 3272.
4112(74) 0.0001826 2583. 3540.
4317(76) 0.0001731 2585. 3851.
4526(78) 0.0001644 2586. 4188.
4901(81) 0.0001524 2587. 4533.
5106(82) 0.0001487 2588. 4883.
5570(86) 0.0001352 2589. 5231.
5952(89) 0.0001262 2590. 5542.
6154(90) 0.0001235 2591. 5742.
6273(91) 0.0001208 2592. 5749.
6352(91) 0.0001208 2593. 5540.
6553(93) 0.0001156 2594. 5199.
6406(91) 0.0001208 2596. 4902.
6453(92) 0.0001181 2597. 4873.
6953(95) 0.0001108 2598. 5367.
8510(110) 0.0000907 2599. 6627.
10570(120) 0.0000731 2600. 8794.
13580(130) 0.0000574 2601. 11785.
16920(150) 0.0000463 2602. 15182.
19440(160) 0.0000401 2603. 18288.
20990(160) 0.0000372 2605. 20106.
20220(160) 0.0000391 2606. 20019.
18020(150) 0.0000439 2607. 18055.
14540(140) 0.0000541 2608. 14903.
10950(120) 0.0000731 2609. 11451.
7960(100) 0.0001000 2610. 8396.
5973(86) 0.0001352 2611. 6099.
4671(76) 0.0001731 2613. 4596.
4035(71) 0.0001984 2614. 3726.
3632(67) 0.0002228 2615. 3274.
3613(67) 0.0002228 2616. 3055.
3270(63) 0.0002520 2617. 2953.
3227(63) 0.0002520 2618. 2908.
3158(62) 0.0002601 2619. 2880.
3015(60) 0.0002778 2621. 2863.
2870(59) 0.0002873 2622. 2852.
2830(58) 0.0002973 2623. 2844.
2875(59) 0.0002873 2624. 2840.
2869(59) 0.0002873 2625. 2838.
3008(60) 0.0002778 2626. 2838.
2923(59) 0.0002873 2627. 2840.
2949(59) 0.0002873 2629. 2843.
3103(60) 0.0002778 2630. 2849.
3214(61) 0.0002687 2631. 2856.
3052(60) 0.0002778 2632. 2865.
3121(60) 0.0002778 2633. 2876.
3111(60) 0.0002778 2634. 2889.
3154(60) 0.0002778 2636. 2904.
3124(60) 0.0002778 2637. 2921.
3161(60) 0.0002778 2638. 2941.
2941(58) 0.0002973 2639. 2972.
2921(58) 0.0002973 2640. 2999.
2851(57) 0.0003078 2641. 3031.
2844(57) 0.0003078 2643. 3068.
2805(56) 0.0003189 2644. 3111.
2803(56) 0.0003189 2645. 3159.
2925(57) 0.0003078 2646. 3220.
2898(57) 0.0003078 2647. 3294.
2902(57) 0.0003078 2648. 3384.
3024(58) 0.0002973 2650. 3502.
3207(60) 0.0002778 2651. 3671.
3494(62) 0.0002601 2652. 3946.
4058(67) 0.0002228 2653. 4453.
5061(75) 0.0001778 2654. 5444.
6870(87) 0.0001321 2655. 7351.
10610(110) 0.0000857 2657. 10791.
16320(130) 0.0000557 2658. 16431.
24850(170) 0.0000367 2659. 24741.
36900(200) 0.00002475 2660. 35487.
51460(240) 0.00001780 2661. 47436.
64100(270) 0.00001424 2662. 58291.
71800(280) 0.00001276 2664. 65125.
72560(280) 0.00001266 2665. 65573.
65380(270) 0.00001413 2666. 59468.
53100(240) 0.00001751 2667. 48985.
39300(210) 0.00002380 2668. 37076.
25800(170) 0.0000363 2669. 26169.
16840(130) 0.0000557 2671. 17671.
10700(110) 0.0000890 2672. 11963.
7613(90) 0.0001235 2673. 8722.
6562(83) 0.0001452 2674. 7327.
5981(79) 0.0001602 2675. 7147.
6177(80) 0.0001562 2676. 7644.
6427(82) 0.0001487 2678. 8373.
6753(84) 0.0001417 2679. 8946.
6945(85) 0.0001384 2680. 9063.
6948(85) 0.0001384 2681. 8615.
6976(85) 0.0001384 2682. 7732.
6720(83) 0.0001452 2683. 6666.
6354(81) 0.0001524 2685. 5647.
5947(78) 0.0001644 2686. 4825.
5626(76) 0.0001731 2687. 4262.
5381(74) 0.0001826 2688. 3955.
5148(72) 0.0001929 2689. 3869.
5292(73) 0.0001877 2690. 3974.
5597(75) 0.0001778 2692. 4259.
5952(77) 0.0001687 2693. 4749.
6832(82) 0.0001487 2694. 5496.
7835(88) 0.0001291 2695. 6566.
9249(96) 0.0001085 2696. 7997.
10900(100) 0.0000925 2697. 9726.
12850(110) 0.0000783 2698. 11521.
14080(120) 0.0000718 2700. 12973.
15000(120) 0.0000672 2701. 13610.
14810(120) 0.0000683 2702. 13147.
13550(120) 0.0000743 2703. 11722.
11690(110) 0.0000857 2704. 9779.
9601(97) 0.0001063 2705. 7790.
7769(88) 0.0001291 2707. 6087.
5982(77) 0.0001687 2708. 4820.
5105(71) 0.0001984 2709. 3987.
4646(68) 0.0002163 2710. 3493.
4345(65) 0.0002367 2711. 3225.
4171(64) 0.0002441 2712. 3085.
4161(64) 0.0002441 2713. 3010.
4125(64) 0.0002441 2714. 2967.
4030(63) 0.0002520 2716. 2939.
3877(62) 0.0002601 2717. 2918.
3817(61) 0.0002687 2718. 2902.
3759(61) 0.0002687 2719. 2890.
3633(60) 0.0002778 2720. 2881.
3452(58) 0.0002973 2721. 2875.
3465(58) 0.0002973 2722. 2875.
3419(58) 0.0002973 2724. 2881.
3237(56) 0.0003189 2725. 2894.
3182(56) 0.0003189 2726. 2866.
3043(55) 0.0003306 2727. 2890.
3031(55) 0.0003306 2728. 2912.
2923(54) 0.0003429 2729. 2926.
3035(55) 0.0003306 2730. 2929.
2815(53) 0.000356 2731. 2924.
2806(52) 0.000370 2732. 2920.
2820(53) 0.000356 2734. 2927.
2867(53) 0.000356 2735. 2953.
2821(53) 0.000356 2736. 2997.
2832(53) 0.000356 2737. 3054.
2843(53) 0.000356 2738. 3109.
2835(53) 0.000356 2739. 3144.
2861(53) 0.000356 2740. 3140.
2836(53) 0.000356 2741. 3103.
2713(52) 0.000370 2742. 3041.
2716(52) 0.000370 2743. 2971.
2753(52) 0.000370 2745. 2908.
2653(51) 0.000384 2746. 2859.
2667(51) 0.000384 2747. 2825.
2759(52) 0.000370 2748. 2805.
2760(52) 0.000370 2749. 2795.
2737(52) 0.000370 2750. 2790.
2832(53) 0.000356 2751. 2789.
2808(52) 0.000370 2752. 2790.
2932(54) 0.0003429 2753. 2792.
2969(54) 0.0003429 2754. 2794.
3045(55) 0.0003306 2755. 2798.
3163(56) 0.0003189 2756. 2803.
3297(57) 0.0003078 2757. 2811.
3358(57) 0.0003078 2758. 2826.
3277(57) 0.0003078 2760. 2845.
3376(58) 0.0002973 2761. 2898.
3508(59) 0.0002873 2762. 2994.
3505(59) 0.0002873 2763. 3153.
3674(60) 0.0002778 2764. 3390.
3732(61) 0.0002687 2765. 3702.
3812(61) 0.0002687 2766. 4055.
3804(61) 0.0002687 2767. 4384.
3884(62) 0.0002601 2768. 4598.
3748(61) 0.0002687 2769. 4623.
3931(62) 0.0002601 2770. 4452.
3898(62) 0.0002601 2771. 4151.
3780(61) 0.0002687 2772. 3813.
3653(60) 0.0002778 2773. 3509.
3469(58) 0.0002973 2774. 3280.
3389(58) 0.0002973 2775. 3134.
3293(57) 0.0003078 2776. 3059.
3285(57) 0.0003078 2777. 3035.
3350(57) 0.0003078 2778. 3043.
3210(56) 0.0003189 2779. 3066.
3245(56) 0.0003189 2780. 3090.
3127(55) 0.0003306 2781. 3102.
3035(55) 0.0003306 2782. 3099.
3156(56) 0.0003189 2783. 3082.
3089(55) 0.0003306 2784. 3071.
3150(56) 0.0003189 2785. 3082.
3209(56) 0.0003189 2786. 3127.
3271(57) 0.0003078 2787. 3203.
3522(59) 0.0002873 2788. 3295.
3509(59) 0.0002873 2789. 3373.
3647(60) 0.0002778 2790. 3407.
3726(61) 0.0002687 2791. 3378.
3696(60) 0.0002778 2792. 3296.
3534(59) 0.0002873 2793. 3186.
3245(56) 0.0003189 2794. 3076.
3009(54) 0.0003429 2795. 2983.
2964(54) 0.0003429 2796. 2917.
2799(52) 0.000370 2797. 2874.
2874(53) 0.000356 2798. 2850.
2798(52) 0.000370 2799. 2838.
2715(52) 0.000370 2800. 2832.
2701(51) 0.000384 2800. 2831.
2715(52) 0.000370 2801. 2831.
2741(52) 0.000370 2802. 2832.
2790(52) 0.000370 2803. 2834.
2750(52) 0.000370 2804. 2835.
2796(52) 0.000370 2805. 2836.
2755(52) 0.000370 2806. 2837.
2628(51) 0.000384 2807. 2839.
2784(52) 0.000370 2808. 2843.
2769(52) 0.000370 2809. 2851.
2676(51) 0.000384 2810. 2863.
2805(52) 0.000370 2811. 2880.
2847(53) 0.000356 2811. 2901.
2722(52) 0.000370 2812. 2923.
2803(52) 0.000370 2813. 2940.
2800(52) 0.000370 2814. 2949.
2834(53) 0.000356 2815. 2947.
3010(54) 0.0003429 2816. 2936.
2891(53) 0.000356 2817. 2921.
2875(53) 0.000356 2818. 2909.
2923(54) 0.0003429 2818. 2900.
3028(55) 0.0003306 2819. 2896.
3003(54) 0.0003429 2820. 2900.
3043(55) 0.0003306 2821. 2912.
3194(56) 0.0003189 2822. 2937.
3316(57) 0.0003078 2823. 2986.
3390(58) 0.0002973 2824. 3081.
3487(59) 0.0002873 2824. 3258.
3717(60) 0.0002778 2825. 3559.
3948(62) 0.0002601 2826. 4022.
4051(63) 0.0002520 2827. 4651.
4257(65) 0.0002367 2828. 5390.
4376(66) 0.0002296 2828. 6110.
4540(67) 0.0002228 2829. 6622.
4609(67) 0.0002228 2830. 6746.
4640(68) 0.0002163 2831. 6428.
4592(67) 0.0002228 2832. 5797.
4220(64) 0.0002441 2833. 5051.
4007(63) 0.0002520 2833. 4355.
3869(62) 0.0002601 2834. 3805.
3761(61) 0.0002687 2835. 3427.
3684(60) 0.0002778 2836. 3199.
3504(59) 0.0002873 2836. 3077.
3388(58) 0.0002973 2837. 3019.
3374(58) 0.0002973 2838. 2992.
3389(58) 0.0002973 2839. 2975.
3384(58) 0.0002973 2840. 2960.
3308(57) 0.0003078 2840. 2943.
3202(56) 0.0003189 2841. 2926.
3096(55) 0.0003306 2842. 2910.
3115(55) 0.0003306 2842. 2898.
3051(55) 0.0003306 2843. 2888.
2932(54) 0.0003429 2844. 2882.
2743(52) 0.000370 2845. 2878.
2771(52) 0.000370 2845. 2875.
2655(51) 0.000384 2846. 2874.
2668(51) 0.000384 2847. 2872.
2722(52) 0.000370 2848. 2872.
2554(50) 0.000400 2848. 2871.
2621(51) 0.000384 2849. 2871.
2578(50) 0.000400 2850. 2872.
2635(51) 0.000384 2850. 2872.
2610(51) 0.000384 2851. 2873.
2618(51) 0.000384 2852. 2876.
2782(52) 0.000370 2852. 2880.
2761(52) 0.000370 2853. 2888.
2660(51) 0.000384 2854. 2903.
2654(51) 0.000384 2854. 2928.
2713(52) 0.000370 2855. 2965.
2703(51) 0.000384 2856. 3013.
2655(51) 0.000384 2856. 3067.
2791(52) 0.000370 2857. 3117.
2867(53) 0.000356 2858. 3147.
2932(54) 0.0003429 2858. 3147.
2875(53) 0.000356 2859. 3117.
2874(53) 0.000356 2860. 3070.
2923(54) 0.0003429 2860. 3019.
2962(54) 0.0003429 2861. 2976.
2845(53) 0.000356 2862. 2945.
2851(53) 0.000356 2862. 2926.
2640(51) 0.000384 2863. 2916.
2650(51) 0.000384 2863. 2912.
2601(51) 0.000384 2864. 2912.
2629(51) 0.000384 2865. 2916.
2578(50) 0.000400 2865. 2926.
2679(51) 0.000384 2866. 2944.
2600(50) 0.000400 2866. 2969.
2507(50) 0.000400 2867. 2997.
2544(50) 0.000400 2867. 3028.
2588(50) 0.000400 2868. 3051.
2664(51) 0.000384 2869. 3060.
2780(52) 0.000370 2869. 3052.
2846(53) 0.000356 2870. 3037.
2876(53) 0.000356 2870. 3027.
2919(54) 0.0003429 2871. 3036.
2945(54) 0.0003429 2871. 3077.
2974(54) 0.0003429 2872. 3163.
2910(53) 0.000356 2872. 3296.
2893(53) 0.000356 2873. 3467.
2873(53) 0.000356 2873. 3654.
2939(54) 0.0003429 2874. 3819.
3016(54) 0.0003429 2874. 3921.
2916(54) 0.0003429 2875. 3937.
3113(55) 0.0003306 2875. 3882.
2872(53) 0.000356 2876. 3781.
2966(54) 0.0003429 2876. 3653.
2972(54) 0.0003429 2877. 3506.
2950(54) 0.0003429 2877. 3360.
3049(55) 0.0003306 2878. 3233.
2951(54) 0.0003429 2878. 3136.
2900(53) 0.000356 2879. 3072.
2869(53) 0.000356 2879. 3041.
2827(53) 0.000356 2880. 3038.
2913(53) 0.000356 2880. 3058.
2954(54) 0.0003429 2881. 3092.
2976(54) 0.0003429 2881. 3134.
3030(55) 0.0003306 2881. 3177.
3020(54) 0.0003429 2882. 3226.
3030(55) 0.0003306 2882. 3300.
3227(56) 0.0003189 2883. 3439.
3383(58) 0.0002973 2883. 3646.
3656(60) 0.0002778 2884. 3936.
4013(63) 0.0002520 2884. 4267.
4515(67) 0.0002228 2884. 4572.
4667(68) 0.0002163 2885. 4751.
4652(68) 0.0002163 2885. 4727.
4420(66) 0.0002296 2886. 4507.
4149(64) 0.0002441 2886. 4176.
3801(61) 0.0002687 2886. 3826.
3427(58) 0.0002973 2887. 3523.
3091(55) 0.0003306 2887. 3298.
2909(53) 0.000356 2887. 3151.
2711(52) 0.000370 2888. 3065.
2680(51) 0.000384 2888. 3019.
2776(52) 0.000370 2888. 2996.
2777(52) 0.000370 2889. 2985.
2847(53) 0.000356 2889. 2981.
2973(54) 0.0003429 2889. 2980.
2938(54) 0.0003429 2890. 2982.
2991(54) 0.0003429 2890. 2987.
2989(54) 0.0003429 2890. 2998.
2915(53) 0.000356 2891. 3015.
2964(54) 0.0003429 2891. 3038.
2949(54) 0.0003429 2891. 3065.
3056(55) 0.0003306 2892. 3094.
2933(54) 0.0003429 2892. 3117.
2945(54) 0.0003429 2892. 3128.
2998(54) 0.0003429 2892. 3127.
2978(54) 0.0003429 2893. 3118.
2933(54) 0.0003429 2893. 3111.
3236(56) 0.0003189 2893. 3113.
3362(57) 0.0003078 2893. 3132.
3366(58) 0.0002973 2894. 3175.
3526(59) 0.0002873 2894. 3245.
3723(61) 0.0002687 2894. 3339.
3764(61) 0.0002687 2894. 3454.
3844(62) 0.0002601 2895. 3581.
4043(63) 0.0002520 2895. 3718.
4160(64) 0.0002441 2895. 3891.
4318(65) 0.0002367 2895. 4167.
4781(69) 0.0002100 2896. 4648.
5161(71) 0.0001984 2896. 5428.
5760(75) 0.0001778 2896. 6552.
6858(82) 0.0001487 2896. 7961.
7931(89) 0.0001262 2896. 9458.
9032(95) 0.0001108 2897. 10717.
9897(99) 0.0001020 2897. 11418.
10230(100) 0.0000980 2897. 11414.
10150(100) 0.0001000 2897. 10750.
9482(97) 0.0001063 2897. 9642.
8360(91) 0.0001208 2897. 8432.
7598(87) 0.0001321 2898. 7453.
7088(84) 0.0001417 2898. 6946.
6875(82) 0.0001487 2898. 7032.
7308(85) 0.0001384 2898. 7734.
8612(92) 0.0001181 2898. 8996.
10600(100) 0.0000961 2898. 10709.
12740(110) 0.0000797 2898. 12706.
15150(120) 0.0000661 2898. 14702.
16880(130) 0.0000601 2899. 16187.
17400(130) 0.0000583 2899. 16541.
16200(130) 0.0000620 2899. 15468.
14080(120) 0.0000718 2899. 13313.
10980(100) 0.0000925 2899. 10744.
8198(90) 0.0001235 2899. 8333.
6083(77) 0.0001687 2899. 6409.
4696(68) 0.0002163 2899. 5064.
3808(61) 0.0002687 2899. 4225.
3372(58) 0.0002973 2899. 3747.
3220(56) 0.0003189 2899. 3489.
3083(55) 0.0003306 2899. 3350.
2990(54) 0.0003429 2900. 3272.
3122(55) 0.0003306 2900. 3223.
3087(55) 0.0003306 2900. 3194.
2881(53) 0.000356 2900. 3181.
2928(54) 0.0003429 2900. 3186.
3024(54) 0.0003429 2900. 3211.
2953(54) 0.0003429 2900. 3257.
2920(54) 0.0003429 2900. 3318.
3017(54) 0.0003429 2900. 3381.
2971(54) 0.0003429 2900. 3427.
2925(54) 0.0003429 2900. 3439.
2960(54) 0.0003429 2900. 3417.
2967(54) 0.0003429 2900. 3378.
2916(54) 0.0003429 2900. 3343.
2972(54) 0.0003429 2900. 3323.
2979(54) 0.0003429 2900. 3320.
3023(54) 0.0003429 2900. 3321.
3034(55) 0.0003306 2900. 3315.
3061(55) 0.0003306 2900. 3298.
3099(55) 0.0003306 2899. 3280.
3047(55) 0.0003306 2899. 3280.
3241(56) 0.0003189 2899. 3318.
3491(59) 0.0002873 2899. 3404.
3622(60) 0.0002778 2899. 3534.
3641(60) 0.0002778 2899. 3687.
3852(62) 0.0002601 2899. 3824.
3900(62) 0.0002601 2899. 3902.
3763(61) 0.0002687 2899. 3899.
3703(60) 0.0002778 2899. 3823.
3541(59) 0.0002873 2899. 3690.
3409(58) 0.0002973 2899. 3534.
3348(57) 0.0003078 2899. 3388.
3262(57) 0.0003078 2898. 3279.
2980(54) 0.0003429 2898. 3224.
3018(54) 0.0003429 2898. 3231.
3083(55) 0.0003306 2898. 3302.
3027(55) 0.0003306 2898. 3438.
3002(54) 0.0003429 2898. 3618.
3075(55) 0.0003306 2898. 3808.
3079(55) 0.0003306 2897. 3959.
3018(54) 0.0003429 2897. 4024.
3042(55) 0.0003306 2897. 3994.
3191(56) 0.0003189 2897. 3909.
3247(56) 0.0003189 2897. 3819.
3267(57) 0.0003078 2897. 3751.
3184(56) 0.0003189 2896. 3699.
3215(56) 0.0003189 2896. 3635.
3090(55) 0.0003306 2896. 3538.
3025(55) 0.0003306 2896. 3415.
3011(54) 0.0003429 2896. 3288.
3071(55) 0.0003306 2896. 3163.
3009(54) 0.0003429 2895. 3076.
2885(53) 0.000356 2895. 3016.
2917(54) 0.0003429 2895. 2978.
2908(53) 0.000356 2895. 2956.
2882(53) 0.000356 2894. 2944.
2866(53) 0.000356 2894. 2937.
2921(54) 0.0003429 2894. 2957.
2900(53) 0.000356 2894. 2955.
2888(53) 0.000356 2893. 2953.
2910(53) 0.000356 2893. 2953.
2981(54) 0.0003429 2893. 2952.
2955(54) 0.0003429 2893. 2952.
2783(52) 0.000370 2892. 2953.
2773(52) 0.000370 2892. 2953.
2813(53) 0.000356 2892. 2955.
2729(52) 0.000370 2892. 2956.
2808(52) 0.000370 2891. 2958.
2936(54) 0.0003429 2891. 2960.
2895(53) 0.000356 2891. 2963.
2935(54) 0.0003429 2890. 2965.
2856(53) 0.000356 2890. 2969.
3079(55) 0.0003306 2890. 2973.
3067(55) 0.0003306 2890. 2978.
3058(55) 0.0003306 2889. 2983.
3150(56) 0.0003189 2889. 2989.
3266(57) 0.0003078 2889. 2998.
3415(58) 0.0002973 2888. 3008.
3516(59) 0.0002873 2888. 3021.
3633(60) 0.0002778 2888. 3040.
3833(61) 0.0002687 2887. 3073.
3848(62) 0.0002601 2887. 3131.
3923(62) 0.0002601 2886. 3232.
3894(62) 0.0002601 2886. 3403.
4068(63) 0.0002520 2886. 3661.
4268(65) 0.0002367 2885. 4010.
4220(64) 0.0002441 2885. 4414.
4642(68) 0.0002163 2885. 4800.
4692(68) 0.0002163 2884. 5054.
4753(68) 0.0002163 2884. 5073.
4745(68) 0.0002163 2883. 4854.
4705(68) 0.0002163 2883. 4496.
4581(67) 0.0002228 2883. 4112.
4398(66) 0.0002296 2882. 3784.
4308(65) 0.0002367 2882. 3549.
4122(64) 0.0002441 2881. 3407.
4106(64) 0.0002441 2881. 3344.
4047(63) 0.0002520 2881. 3346.
4131(64) 0.0002441 2880. 3410.
4216(64) 0.0002441 2880. 3549.
4139(64) 0.0002441 2879. 3789.
4440(66) 0.0002296 2879. 4157.
4659(68) 0.0002163 2878. 4654.
4713(68) 0.0002163 2878. 5239.
5151(71) 0.0001984 2877. 5812.
5177(71) 0.0001984 2877. 6223.
5293(72) 0.0001929 2877. 6344.
5514(74) 0.0001826 2876. 6194.
5387(73) 0.0001877 2876. 5956.
5620(74) 0.0001826 2875. 5898.
6077(77) 0.0001687 2875. 6326.
7276(85) 0.0001384 2874. 7572.
9875(99) 0.0001020 2874. 9954.
14070(120) 0.0000718 2873. 13643.
19410(140) 0.0000518 2873. 18476.
25670(160) 0.0000391 2872. 23773.
30220(170) 0.00003341 2872. 28283.
32340(180) 0.00003121 2871. 30407.
31910(180) 0.00003156 2871. 29158.
28020(170) 0.0000359 2870. 25126.
22640(150) 0.0000444 2870. 19860.
16940(130) 0.0000592 2869. 14742.
12190(110) 0.0000826 2869. 10585.
8816(93) 0.0001156 2868. 7651.
6546(80) 0.0001562 2867. 5813.
5285(72) 0.0001929 2867. 4768.
4377(66) 0.0002296 2866. 4210.
4046(63) 0.0002520 2866. 3914.
3931(62) 0.0002601 2865. 3745.
3820(61) 0.0002687 2865. 3641.
3788(61) 0.0002687 2864. 3580.
3981(63) 0.0002520 2864. 3564.
4102(64) 0.0002441 2863. 3599.
4055(63) 0.0002520 2862. 3684.
4129(64) 0.0002441 2862. 3806.
4151(64) 0.0002441 2861. 3930.
4177(64) 0.0002441 2861. 4005.
4104(64) 0.0002441 2860. 3986.
4074(63) 0.0002520 2859. 3869.
4042(63) 0.0002520 2859. 3694.
3919(62) 0.0002601 2858. 3511.
3900(62) 0.0002601 2858. 3353.
3889(62) 0.0002601 2857. 3235.
3926(62) 0.0002601 2856. 3156.
3844(62) 0.0002601 2856. 3113.
3887(62) 0.0002601 2855. 3091.
4085(63) 0.0002520 2855. 3087.
3927(62) 0.0002601 2854. 3102.
4070(63) 0.0002520 2853. 3142.
4336(65) 0.0002367 2853. 3215.
4341(65) 0.0002367 2852. 3333.
4151(64) 0.0002441 2851. 3494.
4154(64) 0.0002441 2851. 3688.
4073(63) 0.0002520 2850. 3883.
3974(63) 0.0002520 2849. 4034.
3868(62) 0.0002601 2849. 4104.
3873(62) 0.0002601 2848. 4093.
3704(60) 0.0002778 2847. 4020.
3591(59) 0.0002873 2847. 3898.
3505(59) 0.0002873 2846. 3748.
3429(58) 0.0002973 2845. 3612.
3531(59) 0.0002873 2845. 3534.
3560(59) 0.0002873 2844. 3553.
3747(61) 0.0002687 2843. 3692.
4142(64) 0.0002441 2843. 3959.
4435(66) 0.0002296 2842. 4322.
4981(70) 0.0002041 2841. 4711.
5279(72) 0.0001929 2841. 5021.
5207(72) 0.0001929 2840. 5135.
5116(71) 0.0001984 2839. 5025.
4951(70) 0.0002041 2838. 4787.
4670(68) 0.0002163 2838. 4551.
4707(68) 0.0002163 2837. 4397.
4942(70) 0.0002041 2836. 4339.
4815(69) 0.0002100 2836. 4324.
4801(69) 0.0002100 2835. 4267.
4802(69) 0.0002100 2834. 4114.
4416(66) 0.0002296 2833. 3884.
3993(63) 0.0002520 2833. 3610.
3534(59) 0.0002873 2832. 3388.
3324(57) 0.0003078 2831. 3218.
3182(56) 0.0003189 2830. 3104.
3134(55) 0.0003306 2830. 3040.
2944(54) 0.0003429 2829. 3011.
3014(54) 0.0003429 2828. 3005.
3001(54) 0.0003429 2827. 3012.
3034(55) 0.0003306 2827. 3025.
3150(56) 0.0003189 2826. 3036.
3253(57) 0.0003078 2825. 3039.
3364(58) 0.0002973 2824. 3038.
3294(57) 0.0003078 2824. 3038.
3388(58) 0.0002973 2823. 3048.
3645(60) 0.0002778 2822. 3074.
3648(60) 0.0002778 2821. 3119.
3850(62) 0.0002601 2820. 3183.
3836(61) 0.0002687 2820. 3270.
4092(63) 0.0002520 2819. 3388.
4145(64) 0.0002441 2818. 3562.
4274(65) 0.0002367 2817. 3836.
4667(68) 0.0002163 2816. 4248.
5073(71) 0.0001984 2816. 4805.
5182(71) 0.0001984 2815. 5464.
5597(74) 0.0001826 2814. 6120.
5769(75) 0.0001778 2813. 6629.
6224(78) 0.0001644 2812. 6834.
6267(79) 0.0001602 2812. 6647.
6117(78) 0.0001644 2811. 6138.
5768(75) 0.0001778 2810. 5476.
5415(73) 0.0001877 2809. 4803.
5127(71) 0.0001984 2808. 4233.
4622(67) 0.0002228 2807. 3809.
4418(66) 0.0002296 2807. 3519.
4136(64) 0.0002441 2806. 3326.
4055(63) 0.0002520 2805. 3198.
3842(61) 0.0002687 2804. 3116.
3583(59) 0.0002873 2803. 3067.
3453(58) 0.0002973 2802. 3047.
3341(57) 0.0003078 2802. 3049.
3330(57) 0.0003078 2801. 3065.
3237(56) 0.0003189 2800. 3085.
3217(56) 0.0003189 2799. 3094.
3196(56) 0.0003189 2798. 3081.
3100(55) 0.0003306 2797. 3048.
3138(56) 0.0003189 2796. 3006.
3084(55) 0.0003306 2796. 2965.
3029(55) 0.0003306 2795. 2931.
3007(54) 0.0003429 2794. 2907.
3021(54) 0.0003429 2793. 2891.
3006(54) 0.0003429 2792. 2881.
3126(55) 0.0003306 2791. 2876.
2993(54) 0.0003429 2790. 2875.
3012(54) 0.0003429 2789. 2876.
2909(53) 0.000356 2789. 2878.
2975(54) 0.0003429 2788. 2883.
3048(55) 0.0003306 2787. 2890.
3123(55) 0.0003306 2786. 2902.
3017(54) 0.0003429 2785. 2926.
2999(54) 0.0003429 2784. 2967.
3214(56) 0.0003189 2783. 3036.
3182(56) 0.0003189 2782. 3142.
3293(57) 0.0003078 2781. 3287.
3418(58) 0.0002973 2781. 3459.
3510(59) 0.0002873 2780. 3629.
3575(59) 0.0002873 2779. 3750.
3586(59) 0.0002873 2778. 3778.
3553(59) 0.0002873 2777. 3711.
3499(59) 0.0002873 2776. 3596.
3442(58) 0.0002973 2775. 3478.
3153(56) 0.0003189 2774. 3393.
3108(55) 0.0003306 2773. 3358.
3016(54) 0.0003429 2772. 3380.
3249(57) 0.0003078 2772. 3488.
3473(58) 0.0002973 2771. 3753.
4057(63) 0.0002520 2770. 4296.
5264(72) 0.0001929 2769. 5270.
6679(81) 0.0001524 2768. 6812.
8798(93) 0.0001156 2767. 8952.
11280(110) 0.0000890 2766. 11506.
13770(120) 0.0000731 2765. 14038.
16100(130) 0.0000630 2764. 15941.
16930(130) 0.0000592 2763. 16620.
16380(130) 0.0000620 2762. 15811.
14120(120) 0.0000718 2761. 13804.
11220(110) 0.0000907 2760. 11234.
8511(92) 0.0001181 2759. 8730.
6265(79) 0.0001602 2759. 6718.
4957(70) 0.0002041 2758. 5368.
4089(63) 0.0002520 2757. 4625.
3698(60) 0.0002778 2756. 4321.
3780(61) 0.0002687 2755. 4252.
3733(61) 0.0002687 2754. 4232.
3500(59) 0.0002873 2753. 4134.
3539(59) 0.0002873 2752. 3938.
3511(59) 0.0002873 2751. 3698.
3603(60) 0.0002778 2750. 3471.
3367(58) 0.0002973 2749. 3296.
3302(57) 0.0003078 2748. 3187.
3369(58) 0.0002973 2747. 3136.
3274(57) 0.0003078 2746. 3125.
3242(56) 0.0003189 2745. 3128.
3209(56) 0.0003189 2744. 3121.
3308(57) 0.0003078 2743. 3089.
3279(57) 0.0003078 2742. 3039.
3090(55) 0.0003306 2741. 2983.
3076(55) 0.0003306 2740. 2932.
3052(55) 0.0003306 2740. 2892.
3013(54) 0.0003429 2739. 2864.
3006(54) 0.0003429 2738. 2846.
3099(55) 0.0003306 2737. 2835.
3141(56) 0.0003189 2736. 2829.
3161(56) 0.0003189 2735. 2826.
3152(56) 0.0003189 2734. 2826.
3185(56) 0.0003189 2733. 2830.
3224(56) 0.0003189 2732. 2838.
3154(56) 0.0003189 2731. 2852.
3283(57) 0.0003078 2730. 2871.
3205(56) 0.0003189 2729. 2893.
3153(56) 0.0003189 2728. 2914.
3279(57) 0.0003078 2727. 2928.
3369(58) 0.0002973 2726. 2929.
3361(57) 0.0003078 2725. 2919.
3494(59) 0.0002873 2724. 2905.
3583(59) 0.0002873 2723. 2894.
3530(59) 0.0002873 2722. 2889.
3503(59) 0.0002873 2721. 2892.
3598(59) 0.0002873 2720. 2907.
3705(60) 0.0002778 2719. 2938.
3823(61) 0.0002687 2718. 2994.
4017(63) 0.0002520 2717. 3095.
4232(65) 0.0002367 2716. 3271.
4513(67) 0.0002228 2715. 3559.
4842(69) 0.0002100 2714. 3989.
5110(71) 0.0001984 2713. 4562.
5282(72) 0.0001929 2712. 5233.
5713(75) 0.0001778 2711. 5884.
5977(77) 0.0001687 2710. 6348.
6206(78) 0.0001644 2710. 6500.
6143(78) 0.0001644 2709. 6349.
6047(77) 0.0001687 2708. 5991.
5929(77) 0.0001687 2707. 5564.
5726(75) 0.0001778 2706. 5177.
5301(72) 0.0001929 2705. 4855.
5012(70) 0.0002041 2704. 4556.
4728(68) 0.0002163 2703. 4255.
4594(67) 0.0002228 2702. 3982.
4229(65) 0.0002367 2701. 3789.
4054(63) 0.0002520 2700. 3712.
4100(64) 0.0002441 2699. 3762.
3933(62) 0.0002601 2698. 3914.
3782(61) 0.0002687 2697. 4108.
3703(60) 0.0002778 2696. 4252.
3669(60) 0.0002778 2695. 4255.
3593(59) 0.0002873 2694. 4099.
3505(59) 0.0002873 2693. 3857.
3473(58) 0.0002973 2692. 3618.
3306(57) 0.0003078 2691. 3448.
3413(58) 0.0002973 2690. 3386.
3391(58) 0.0002973 2689. 3443.
3636(60) 0.0002778 2688. 3619.
3721(61) 0.0002687 2687. 3845.
3930(62) 0.0002601 2686. 4072.
3934(62) 0.0002601 2685. 4204.
3989(63) 0.0002520 2684. 4167.
3933(62) 0.0002601 2683. 3975.
3678(60) 0.0002778 2682. 3712.
3540(59) 0.0002873 2681. 3457.
3413(58) 0.0002973 2680. 3262.
3147(56) 0.0003189 2679. 3147.
3181(56) 0.0003189 2678. 3114.
3194(56) 0.0003189 2677. 3151.
3264(57) 0.0003078 2677. 3237.
3139(56) 0.0003189 2676. 3342.
3203(56) 0.0003189 2675. 3448.
3127(55) 0.0003306 2674. 3488.
3166(56) 0.0003189 2673. 3470.
3089(55) 0.0003306 2672. 3417.
3027(55) 0.0003306 2671. 3359.
3045(55) 0.0003306 2670. 3307.
3024(54) 0.0003429 2669. 3252.
2968(54) 0.0003429 2668. 3185.
2992(54) 0.0003429 2667. 3105.
3064(55) 0.0003306 2666. 3024.
3046(55) 0.0003306 2665. 2950.
2891(53) 0.000356 2664. 2892.
2980(54) 0.0003429 2663. 2851.
2941(54) 0.0003429 2662. 2825.
2981(54) 0.0003429 2661. 2811.
3148(56) 0.0003189 2660. 2805.
3181(56) 0.0003189 2659. 2804.
3055(55) 0.0003306 2658. 2808.
3141(56) 0.0003189 2657. 2817.
3342(57) 0.0003078 2657. 2834.
3356(57) 0.0003078 2656. 2865.
3323(57) 0.0003078 2655. 2938.
3364(58) 0.0002973 2654. 3027.
3382(58) 0.0002973 2653. 3158.
3382(58) 0.0002973 2652. 3327.
3413(58) 0.0002973 2651. 3513.
3279(57) 0.0003078 2650. 3675.
3325(57) 0.0003078 2649. 3753.
3282(57) 0.0003078 2648. 3711.
3335(57) 0.0003078 2647. 3574.
3398(58) 0.0002973 2646. 3402.
3477(58) 0.0002973 2645. 3240.
3473(58) 0.0002973 2644. 3115.
3365(58) 0.0002973 2644. 3033.
3278(57) 0.0003078 2643. 2987.
3382(58) 0.0002973 2642. 2970.
3352(57) 0.0003078 2641. 2970.
3204(56) 0.0003189 2640. 2982.
3242(56) 0.0003189 2639. 3000.
3260(57) 0.0003078 2638. 3027.
3337(57) 0.0003078 2637. 3060.
3356(57) 0.0003078 2636. 3101.
3241(56) 0.0003189 2635. 3152.
3476(58) 0.0002973 2634. 3216.
3623(60) 0.0002778 2634. 3300.
3771(61) 0.0002687 2633. 3419.
4076(63) 0.0002520 2632. 3601.
4827(69) 0.0002100 2631. 3906.
5320(72) 0.0001929 2630. 4438.
6046(77) 0.0001687 2629. 5340.
7429(86) 0.0001352 2628. 6765.
9081(95) 0.0001108 2627. 8799.
11100(110) 0.0000907 2626. 11356.
13240(120) 0.0000756 2625. 14084.
15380(120) 0.0000650 2625. 16291.
16020(130) 0.0000630 2624. 17108.
16080(130) 0.0000630 2623. 16148.
14040(120) 0.0000718 2622. 13956.
11670(110) 0.0000857 2621. 11420.
9182(95) 0.0001108 2620. 9204.
6999(83) 0.0001452 2619. 7667.
5990(77) 0.0001687 2619. 6961.
6121(78) 0.0001644 2618. 7151.
7472(86) 0.0001352 2617. 8286.
9478(97) 0.0001063 2616. 10387.
12720(110) 0.0000797 2615. 13330.
16280(130) 0.0000620 2614. 16714.
18880(140) 0.0000533 2613. 19739.
19850(140) 0.0000510 2613. 21276.
19550(140) 0.0000518 2612. 20552.
17240(130) 0.0000583 2611. 17969.
14280(120) 0.0000706 2610. 14625.
10950(100) 0.0000925 2609. 11423.
8374(91) 0.0001208 2608. 8835.
6562(81) 0.0001524 2608. 6997.
5220(72) 0.0001929 2607. 5834.
4418(66) 0.0002296 2606. 5171.
4094(63) 0.0002520 2605. 4819.
3902(62) 0.0002601 2604. 4641.
3866(62) 0.0002601 2603. 4570.
3724(61) 0.0002687 2603. 4597.
3854(62) 0.0002601 2602. 4754.
4208(64) 0.0002441 2601. 5127.
4822(69) 0.0002100 2600. 5860.
6125(78) 0.0001644 2599. 7139.
8144(90) 0.0001235 2599. 9127.
11180(110) 0.0000907 2598. 11874.
14830(120) 0.0000683 2597. 15207.
18750(140) 0.0000541 2596. 18618.
21400(150) 0.0000469 2595. 21162.
22120(150) 0.0000457 2595. 21710.
20540(140) 0.0000489 2594. 19910.
17040(130) 0.0000592 2593. 16613.
12660(110) 0.0000797 2592. 12973.
8853(94) 0.0001132 2591. 9761.
6120(78) 0.0001644 2591. 7319.
4581(67) 0.0002228 2590. 5668.
3906(62) 0.0002601 2589. 4653.
3617(60) 0.0002778 2588. 4067.
3521(59) 0.0002873 2588. 3737.
3476(58) 0.0002973 2587. 3548.
3565(59) 0.0002873 2586. 3443.
3497(59) 0.0002873 2585. 3393.
3479(58) 0.0002973 2585. 3390.
3455(58) 0.0002973 2584. 3429.
3517(59) 0.0002873 2583. 3501.
3724(61) 0.0002687 2582. 3590.
3922(62) 0.0002601 2582. 3667.
4012(63) 0.0002520 2581. 3715.
4106(64) 0.0002441 2580. 3748.
4360(66) 0.0002296 2580. 3801.
4573(67) 0.0002228 2579. 3897.
4921(70) 0.0002041 2578. 4017.
4981(70) 0.0002041 2577. 4104.
5119(71) 0.0001984 2577. 4085.
5196(72) 0.0001929 2576. 3942.
5113(71) 0.0001984 2575. 3724.
4907(70) 0.0002041 2575. 3506.
4503(67) 0.0002228 2574. 3341.
4346(65) 0.0002367 2573. 3255.
4145(64) 0.0002441 2573. 3253.
4060(63) 0.0002520 2572. 3326.
3929(62) 0.0002601 2571. 3447.
3777(61) 0.0002687 2571. 3563.
3641(60) 0.0002778 2570. 3650.
3558(59) 0.0002873 2569. 3661.
3406(58) 0.0002973 2569. 3584.
3414(58) 0.0002973 2568. 3441.
3311(57) 0.0003078 2567. 3273.
3271(57) 0.0003078 2567. 3121.
3178(56) 0.0003189 2566. 3006.
3176(56) 0.0003189 2565. 2936.
3105(55) 0.0003306 2565. 2913.
3097(55) 0.0003306 2564. 2936.
3055(55) 0.0003306 2563. 3007.
3091(55) 0.0003306 2563. 3125.
3200(56) 0.0003189 2562. 3282.
3091(55) 0.0003306 2562. 3439.
3179(56) 0.0003189 2561. 3589.
3255(57) 0.0003078 2560. 3668.
3227(56) 0.0003189 2560. 3663.
3250(57) 0.0003078 2559. 3608.
3365(58) 0.0002973 2559. 3548.
3562(59) 0.0002873 2558. 3512.
3666(60) 0.0002778 2557. 3532.
4107(64) 0.0002441 2557. 3637.
4427(66) 0.0002296 2556. 3834.
4757(68) 0.0002163 2556. 4090.
5067(71) 0.0001984 2555. 4329.
5228(72) 0.0001929 2554. 4437.
5132(71) 0.0001984 2554. 4337.
4574(67) 0.0002228 2553. 4067.
4217(64) 0.0002441 2553. 3734.
3757(61) 0.0002687 2552. 3422.
3442(58) 0.0002973 2552. 3174.
3096(55) 0.0003306 2551. 3002.
3003(54) 0.0003429 2551. 2898.
2976(54) 0.0003429 2550. 2847.
2816(53) 0.000356 2550. 2821.
2879(53) 0.000356 2549. 2860.
2825(53) 0.000356 2549. 2969.
3024(54) 0.0003429 2548. 3193.
3274(57) 0.0003078 2548. 3587.
3922(62) 0.0002601 2547. 4196.
4786(69) 0.0002100 2547. 5020.
5876(76) 0.0001731 2546. 5972.
6630(81) 0.0001524 2546. 6876.
7369(85) 0.0001384 2545. 7488.
7415(86) 0.0001352 2545. 7599.
7097(84) 0.0001417 2544. 7173.
6157(78) 0.0001644 2544. 6382.
5121(71) 0.0001984 2543. 5481.
4408(66) 0.0002296 2543. 4687.
3845(62) 0.0002601 2542. 4128.
3560(59) 0.0002873 2542. 3835.
3511(59) 0.0002873 2541. 3774.
3534(59) 0.0002873 2541. 3870.
3707(60) 0.0002778 2541. 4054.
3764(61) 0.0002687 2540. 4268.
4060(63) 0.0002520 2540. 4482.
4210(64) 0.0002441 2539. 4695.
4268(65) 0.0002367 2539. 4892.
4338(65) 0.0002367 2538. 4997.
4278(65) 0.0002367 2538. 4905.
4269(65) 0.0002367 2538. 4597.
3995(63) 0.0002520 2537. 4172.
3951(62) 0.0002601 2537. 3746.
3873(62) 0.0002601 2536. 3386.
3624(60) 0.0002778 2536. 3118.
3434(58) 0.0002973 2536. 2937.
3429(58) 0.0002973 2535. 2825.
3346(57) 0.0003078 2535. 2758.
3277(57) 0.0003078 2535. 2718.
3209(56) 0.0003189 2534. 2693.
3189(56) 0.0003189 2534. 2676.
3112(55) 0.0003306 2534. 2665.
3097(55) 0.0003306 2533. 2657.
3034(55) 0.0003306 2533. 2651.
3029(55) 0.0003306 2533. 2647.
2956(54) 0.0003429 2532. 2645.
2917(54) 0.0003429 2532. 2645.
2829(53) 0.000356 2532. 2647.
2819(53) 0.000356 2531. 2651.
2848(53) 0.000356 2531. 2658.
2744(52) 0.000370 2531. 2672.
2798(52) 0.000370 2530. 2695.
2751(52) 0.000370 2530. 2733.
2798(52) 0.000370 2530. 2797.
2773(52) 0.000370 2530. 2895.
2839(53) 0.000356 2529. 3035.
3031(55) 0.0003306 2529. 3213.
3068(55) 0.0003306 2529. 3410.
3118(55) 0.0003306 2529. 3590.
3131(55) 0.0003306 2528. 3702.
3148(56) 0.0003189 2528. 3727.
3247(56) 0.0003189 2528. 3700.
3231(56) 0.0003189 2528. 3675.
3260(57) 0.0003078 2527. 3677.
3239(56) 0.0003189 2527. 3694.
3595(59) 0.0002873 2527. 3695.
3543(59) 0.0002873 2527. 3673.
3569(59) 0.0002873 2527. 3674.
3525(59) 0.0002873 2526. 3748.
3662(60) 0.0002778 2526. 3908.
3927(62) 0.0002601 2526. 4131.
4071(63) 0.0002520 2526. 4343.
4188(64) 0.0002441 2526. 4430.
3905(62) 0.0002601 2526. 4322.
3840(61) 0.0002687 2525. 4064.
3554(59) 0.0002873 2525. 3764.
3397(58) 0.0002973 2525. 3506.
3314(57) 0.0003078 2525. 3337.
3176(56) 0.0003189 2525. 3271.
3156(56) 0.0003189 2525. 3298.
3223(56) 0.0003189 2525. 3390.
3270(57) 0.0003078 2524. 3507.
3259(57) 0.0003078 2524. 3612.
3275(57) 0.0003078 2524. 3676.
3338(57) 0.0003078 2524. 3669.
3241(56) 0.0003189 2524. 3570.
3243(56) 0.0003189 2524. 3403.
3157(56) 0.0003189 2524. 3220.
3190(56) 0.0003189 2524. 3059.
3102(55) 0.0003306 2524. 2937.
3111(55) 0.0003306 2524. 2860.
3128(55) 0.0003306 2524. 2826.
3113(55) 0.0003306 2524. 2836.
3101(55) 0.0003306 2524. 2892.
3282(57) 0.0003078 2524. 3007.
3317(57) 0.0003078 2523. 3196.
3641(60) 0.0002778 2523. 3464.
3836(61) 0.0002687 2523. 3797.
4244(65) 0.0002367 2523. 4143.
4397(66) 0.0002296 2523. 4409.
4407(66) 0.0002296 2523. 4478.
4289(65) 0.0002367 2523. 4310.
4000(63) 0.0002520 2523. 3992.
3760(61) 0.0002687 2523. 3637.
3493(59) 0.0002873 2523. 3322.
3493(59) 0.0002873 2524. 3079.
3073(55) 0.0003306 2524. 2909.
3054(55) 0.0003306 2524. 2804.
2875(53) 0.000356 2524. 2743.
2940(54) 0.0003429 2524. 2709.
2820(53) 0.000356 2524. 2690.
2737(52) 0.000370 2524. 2682.
2803(52) 0.000370 2524. 2680.
2841(53) 0.000356 2524. 2686.
2805(52) 0.000370 2524. 2701.
2731(52) 0.000370 2524. 2723.
2788(52) 0.000370 2524. 2754.
2789(52) 0.000370 2524. 2792.
2755(52) 0.000370 2525. 2833.
2848(53) 0.000356 2525. 2874.
2935(54) 0.0003429 2525. 2920.
3042(55) 0.0003306 2525. 2989.
3003(54) 0.0003429 2525. 3099.
3070(55) 0.0003306 2525. 3260.
3246(56) 0.0003189 2525. 3464.
3256(57) 0.0003078 2526. 3677.
3253(57) 0.0003078 2526. 3835.
3329(57) 0.0003078 2526. 3870.
3336(57) 0.0003078 2526. 3767.
3250(57) 0.0003078 2526. 3579.
3213(56) 0.0003189 2526. 3373.
3159(56) 0.0003189 2527. 3193.
3078(55) 0.0003306 2527. 3061.
3055(55) 0.0003306 2527. 2985.
3065(55) 0.0003306 2527. 2958.
3064(55) 0.0003306 2527. 2974.
3121(55) 0.0003306 2528. 3031.
3052(55) 0.0003306 2528. 3139.
3245(56) 0.0003189 2528. 3322.
3417(58) 0.0002973 2528. 3617.
3919(62) 0.0002601 2529. 4065.
4580(67) 0.0002228 2529. 4689.
5455(73) 0.0001877 2529. 5475.
6348(79) 0.0001602 2530. 6354.
7401(86) 0.0001352 2530. 7171.
7816(88) 0.0001291 2530. 7657.
7683(87) 0.0001321 2530. 7563.
7359(85) 0.0001384 2531. 6918.
6246(79) 0.0001602 2531. 6003.
5179(71) 0.0001984 2531. 5085.
4246(65) 0.0002367 2532. 4315.
3591(59) 0.0002873 2532. 3745.
3137(56) 0.0003189 2532. 3363.
2944(54) 0.0003429 2533. 3128.
2818(53) 0.000356 2533. 2991.
2870(53) 0.000356 2533. 2918.
2715(52) 0.000370 2534. 2883.
2748(52) 0.000370 2534. 2877.
2773(52) 0.000370 2535. 2896.
2818(53) 0.000356 2535. 2938.
2848(53) 0.000356 2535. 3001.
2954(54) 0.0003429 2536. 3078.
3004(54) 0.0003429 2536. 3160.
3004(54) 0.0003429 2537. 3236.
3055(55) 0.0003306 2537. 3301.
3175(56) 0.0003189 2537. 3367.
3263(57) 0.0003078 2538. 3450.
3177(56) 0.0003189 2538. 3552.
3186(56) 0.0003189 2539. 3644.
3137(56) 0.0003189 2539. 3681.
3227(56) 0.0003189 2540. 3636.
3171(56) 0.0003189 2540. 3537.
3189(56) 0.0003189 2541. 3439.
3273(57) 0.0003078 2541. 3381.
3474(58) 0.0002973 2542. 3377.
3422(58) 0.0002973 2542. 3414.
3546(59) 0.0002873 2543. 3457.
3485(59) 0.0002873 2543. 3469.
3266(57) 0.0003078 2544. 3448.
3251(57) 0.0003078 2544. 3408.
3116(55) 0.0003306 2545. 3354.
2929(54) 0.0003429 2545. 3275.
2839(53) 0.000356 2546. 3168.
2722(52) 0.000370 2546. 3052.
2809(53) 0.000356 2547. 2949.
2815(53) 0.000356 2547. 2870.
2765(52) 0.000370 2548. 2818.
2745(52) 0.000370 2549. 2794.
2745(52) 0.000370 2549. 2790.
2674(51) 0.000384 2550. 2802.
2658(51) 0.000384 2550. 2828.
2643(51) 0.000384 2551. 2864.
2567(50) 0.000400 2552. 2902.
2618(51) 0.000384 2552. 2930.
2606(51) 0.000384 2553. 2928.
2662(51) 0.000384 2554. 2894.
2556(50) 0.000400 2554. 2839.
2520(50) 0.000400 2555. 2782.
2427(49) 0.000416 2556. 2732.
2491(49) 0.000416 2556. 2693.
2472(49) 0.000416 2557. 2666.
2583(50) 0.000400 2558. 2650.
2607(51) 0.000384 2558. 2640.
2528(50) 0.000400 2559. 2635.
2578(50) 0.000400 2560. 2632.
2616(51) 0.000384 2560. 2633.
2707(52) 0.000370 2561. 2640.
2628(51) 0.000384 2562. 2645.
2578(50) 0.000400 2563. 2654.
2606(51) 0.000384 2563. 2669.
2647(51) 0.000384 2564. 2691.
2661(51) 0.000384 2565. 2721.
2664(51) 0.000384 2566. 2757.
2713(52) 0.000370 2566. 2797.
2716(52) 0.000370 2567. 2830.
2700(51) 0.000384 2568. 2846.
2683(51) 0.000384 2569. 2840.
2709(52) 0.000370 2569. 2820.
2803(52) 0.000370 2570. 2797.
2853(53) 0.000356 2571. 2779.
2636(51) 0.000384 2572. 2771.
2744(52) 0.000370 2573. 2776.
2793(52) 0.000370 2574. 2793.
2960(54) 0.0003429 2574. 2836.
2894(53) 0.000356 2575. 2912.
3085(55) 0.0003306 2576. 3032.
2969(54) 0.0003429 2577. 3208.
3200(56) 0.0003189 2578. 3442.
3496(59) 0.0002873 2579. 3722.
3840(61) 0.0002687 2580. 4011.
3976(63) 0.0002520 2580. 4248.
3988(63) 0.0002520 2581. 4376.
4136(64) 0.0002441 2582. 4398.
4298(65) 0.0002367 2583. 4367.
4132(64) 0.0002441 2584. 4333.
3920(62) 0.0002601 2585. 4327.
3930(62) 0.0002601 2586. 4338.
3804(61) 0.0002687 2587. 4308.
3816(61) 0.0002687 2588. 4174.
3815(61) 0.0002687 2589. 3943.
3631(60) 0.0002778 2590. 3676.
3355(57) 0.0003078 2591. 3433.
3264(57) 0.0003078 2592. 3245.
3380(58) 0.0002973 2593. 3120.
3350(57) 0.0003078 2594. 3052.
3259(57) 0.0003078 2595. 3025.
3107(55) 0.0003306 2596. 3017.
3090(55) 0.0003306 2597. 3011.
3085(55) 0.0003306 2598. 2990.
3015(54) 0.0003429 2599. 2955.
2926(54) 0.0003429 2600. 2914.
2923(54) 0.0003429 2601. 2875.
2820(53) 0.000356 2602. 2846.
2818(53) 0.000356 2603. 2829.
2828(53) 0.000356 2604. 2825.
2813(53) 0.000356 2605. 2836.
2960(54) 0.0003429 2606. 2870.
3025(55) 0.0003306 2607. 2944.
3189(56) 0.0003189 2608. 3094.
3366(58) 0.0002973 2609. 3385.
3710(60) 0.0002778 2610. 3900.
4292(65) 0.0002367 2612. 4727.
5438(73) 0.0001877 2613. 5904.
6599(81) 0.0001524 2614. 7369.
8229(90) 0.0001235 2615. 8920.
9344(96) 0.0001085 2616. 10220.
9784(98) 0.0001041 2617. 10890.
9914(99) 0.0001020 2618. 10698.
8926(94) 0.0001132 2619. 9746.
7782(88) 0.0001291 2621. 8389.
6203(78) 0.0001644 2622. 7001.
5155(71) 0.0001984 2623. 5841.
4429(66) 0.0002296 2624. 5007.
4083(63) 0.0002520 2625. 4457.
3853(62) 0.0002601 2627. 4086.
3673(60) 0.0002778 2628. 3815.
3666(60) 0.0002778 2629. 3620.
3671(60) 0.0002778 2630. 3504.
3739(61) 0.0002687 2631. 3470.
3725(61) 0.0002687 2633. 3513.
3787(61) 0.0002687 2634. 3616.
3869(62) 0.0002601 2635. 3741.
3996(63) 0.0002520 2636. 3829.
4035(63) 0.0002520 2638. 3821.
4047(63) 0.0002520 2639. 3710.
3935(62) 0.0002601 2640. 3543.
3798(61) 0.0002687 2642. 3375.
3479(58) 0.0002973 2643. 3236.
3121(55) 0.0003306 2644. 3134.
2956(54) 0.0003429 2645. 3063.
2815(53) 0.000356 2647. 3010.
2854(53) 0.000356 2648. 2962.
2798(52) 0.000370 2649. 2918.
2778(52) 0.000370 2651. 2878.
2673(51) 0.000384 2652. 2842.
2838(53) 0.000356 2653. 2812.
2711(52) 0.000370 2655. 2789.
2633(51) 0.000384 2656. 2773.
2727(52) 0.000370 2657. 2762.
2713(52) 0.000370 2659. 2756.
2707(52) 0.000370 2660. 2754.
2743(52) 0.000370 2662. 2754.
2652(51) 0.000384 2663. 2756.
2722(52) 0.000370 2664. 2760.
2844(53) 0.000356 2666. 2766.
2720(52) 0.000370 2667. 2775.
2639(51) 0.000384 2669. 2787.
2704(52) 0.000370 2670. 2798.
2685(51) 0.000384 2671. 2807.
2717(52) 0.000370 2673. 2809.
2726(52) 0.000370 2674. 2805.
2770(52) 0.000370 2676. 2800.
2666(51) 0.000384 2677. 2797.
2728(52) 0.000370 2679. 2801.
2836(53) 0.000356 2680. 2814.
2803(52) 0.000370 2682. 2839.
2810(53) 0.000356 2683. 2877.
2861(53) 0.000356 2685. 2926.
2904(53) 0.000356 2686. 2982.
2804(52) 0.000370 2688. 3034.
2872(53) 0.000356 2689. 3065.
2866(53) 0.000356 2691. 3064.
2869(53) 0.000356 2692. 3035.
2841(53) 0.000356 2694. 2994.
2964(54) 0.0003429 2695. 2955.
2959(54) 0.0003429 2697. 2927.
3036(55) 0.0003306 2698. 2912.
3050(55) 0.0003306 2700. 2913.
3062(55) 0.0003306 2701. 2933.
3242(56) 0.0003189 2703. 2976.
3298(57) 0.0003078 2705. 3052.
3311(57) 0.0003078 2706. 3168.
3291(57) 0.0003078 2708. 3329.
3408(58) 0.0002973 2709. 3531.
3590(59) 0.0002873 2711. 3757.
3713(60) 0.0002778 2713. 3969.
3698(60) 0.0002778 2714. 4119.
3759(61) 0.0002687 2716. 4177.
3801(61) 0.0002687 2717. 4151.
3858(62) 0.0002601 2719. 4075.
3839(61) 0.0002687 2721. 3983.
3629(60) 0.0002778 2722. 3897.
3742(61) 0.0002687 2724. 3804.
3669(60) 0.0002778 2726. 3686.
3529(59) 0.0002873 2727. 3547.
3509(59) 0.0002873 2729. 3409.
3442(58) 0.0002973 2731. 3298.
3346(57) 0.0003078 2732. 3218.
3319(57) 0.0003078 2734. 3175.
3366(58) 0.0002973 2736. 3165.
3316(57) 0.0003078 2737. 3176.
3256(57) 0.0003078 2739. 3191.
3238(56) 0.0003189 2741. 3192.
3307(57) 0.0003078 2743. 3171.
3198(56) 0.0003189 2744. 3126.
3228(56) 0.0003189 2746. 3071.
3175(56) 0.0003189 2748. 3017.
3127(55) 0.0003306 2750. 2972.
3200(56) 0.0003189 2751. 2939.
3201(56) 0.0003189 2753. 2917.
3055(55) 0.0003306 2755. 2905.
3031(55) 0.0003306 2757. 2903.
3071(55) 0.0003306 2758. 2907.
3161(56) 0.0003189 2760. 2919.
3247(56) 0.0003189 2762. 2939.
3172(56) 0.0003189 2764. 2974.
3157(56) 0.0003189 2766. 3028.
3198(56) 0.0003189 2767. 3110.
3308(57) 0.0003078 2769. 3229.
3432(58) 0.0002973 2771. 3386.
3586(59) 0.0002873 2773. 3580.
3567(59) 0.0002873 2775. 3792.
3680(60) 0.0002778 2776. 3983.
3785(61) 0.0002687 2778. 4105.
3936(62) 0.0002601 2780. 4124.
3850(62) 0.0002601 2782. 4067.
3782(61) 0.0002687 2784. 3985.
3587(59) 0.0002873 2786. 3913.
3521(59) 0.0002873 2788. 3851.
3507(59) 0.0002873 2789. 3774.
3556(59) 0.0002873 2791. 3667.
3550(59) 0.0002873 2793. 3540.
3479(58) 0.0002973 2795. 3421.
3513(59) 0.0002873 2797. 3328.
3562(59) 0.0002873 2799. 3270.
3445(58) 0.0002973 2801. 3248.
3447(58) 0.0002973 2803. 3254.
3460(58) 0.0002973 2805. 3276.
3376(58) 0.0002973 2807. 3293.
3483(59) 0.0002873 2808. 3288.
3420(58) 0.0002973 2810. 3260.
3337(57) 0.0003078 2812. 3221.
3376(58) 0.0002973 2814. 3186.
3353(57) 0.0003078 2816. 3169.
3222(56) 0.0003189 2818. 3176.
3525(59) 0.0002873 2820. 3208.
3463(58) 0.0002973 2822. 3260.
3412(58) 0.0002973 2824. 3319.
3390(58) 0.0002973 2826. 3365.
3432(58) 0.0002973 2828. 3381.
3381(58) 0.0002973 2830. 3362.
3299(57) 0.0003078 2832. 3327.
3204(56) 0.0003189 2834. 3297.
3160(56) 0.0003189 2836. 3290.
3185(56) 0.0003189 2838. 3312.
3211(56) 0.0003189 2840. 3363.
3371(58) 0.0002973 2842. 3434.
3261(57) 0.0003078 2844. 3511.
3278(57) 0.0003078 2846. 3572.
3358(57) 0.0003078 2848. 3607.
3444(58) 0.0002973 2850. 3630.
3578(59) 0.0002873 2852. 3661.
3666(60) 0.0002778 2854. 3711.
3683(60) 0.0002778 2856. 3770.
3653(60) 0.0002778 2858. 3808.
3618(60) 0.0002778 2860. 3790.
3656(60) 0.0002778 2862. 3709.
3543(59) 0.0002873 2865. 3588.
3455(58) 0.0002973 2867. 3460.
3375(58) 0.0002973 2869. 3346.
3356(57) 0.0003078 2871. 3256.
3322(57) 0.0003078 2873. 3193.
3386(58) 0.0002973 2875. 3153.
3264(57) 0.0003078 2877. 3133.
3465(58) 0.0002973 2879. 3126.
3379(58) 0.0002973 2881. 3130.
3280(57) 0.0003078 2883. 3142.
3406(58) 0.0002973 2886. 3162.
3514(59) 0.0002873 2888. 3188.
3566(59) 0.0002873 2890. 3225.
3645(60) 0.0002778 2892. 3281.
3726(61) 0.0002687 2894. 3349.
3829(61) 0.0002687 2896. 3444.
3998(63) 0.0002520 2898. 3578.
3987(63) 0.0002520 2901. 3768.
4185(64) 0.0002441 2903. 4041.
4520(67) 0.0002228 2905. 4426.
4919(70) 0.0002041 2907. 4949.
5428(73) 0.0001877 2909. 5611.
6050(77) 0.0001687 2911. 6373.
6682(81) 0.0001524 2914. 7131.
7434(86) 0.0001352 2916. 7704.
8153(90) 0.0001235 2918. 7907.
8411(91) 0.0001208 2920. 7712.
7886(88) 0.0001291 2922. 7225.
7351(85) 0.0001384 2924. 6632.
6367(79) 0.0001602 2927. 6061.
5606(74) 0.0001826 2929. 5579.
4867(69) 0.0002100 2931. 5198.
4445(66) 0.0002296 2933. 4879.
4222(64) 0.0002441 2936. 4590.
4035(63) 0.0002520 2938. 4327.
3799(61) 0.0002687 2940. 4108.
3843(61) 0.0002687 2942. 3947.
3664(60) 0.0002778 2944. 3846.
3585(59) 0.0002873 2947. 3800.
3598(59) 0.0002873 2949. 3798.
3488(59) 0.0002873 2951. 3817.
3559(59) 0.0002873 2953. 3834.
3507(59) 0.0002873 2956. 3833.
3471(58) 0.0002973 2958. 3812.
3360(57) 0.0003078 2960. 3786.
3574(59) 0.0002873 2962. 3780.
3706(60) 0.0002778 2965. 3813.
3725(61) 0.0002687 2967. 3899.
3780(61) 0.0002687 2969. 4035.
4015(63) 0.0002520 2972. 4204.
4066(63) 0.0002520 2974. 4368.
4059(63) 0.0002520 2976. 4470.
3907(62) 0.0002601 2978. 4460.
3846(62) 0.0002601 2981. 4337.
3679(60) 0.0002778 2983. 4150.
3777(61) 0.0002687 2985. 3954.
3641(60) 0.0002778 2988. 3785.
3614(60) 0.0002778 2990. 3661.
3675(60) 0.0002778 2992. 3586.
3731(61) 0.0002687 2994. 3559.
3732(61) 0.0002687 2997. 3571.
3664(60) 0.0002778 2999. 3611.
3755(61) 0.0002687 3001. 3665.
3812(61) 0.0002687 3004. 3720.
3922(62) 0.0002601 3006. 3775.
3878(62) 0.0002601 3008. 3837.
3812(61) 0.0002687 3011. 3915.
3910(62) 0.0002601 3013. 4003.
3986(63) 0.0002520 3015. 4081.
3939(62) 0.0002601 3018. 4115.
3907(62) 0.0002601 3020. 4079.
4063(63) 0.0002520 3022. 3982.
3797(61) 0.0002687 3025. 3856.
3803(61) 0.0002687 3027. 3733.
3760(61) 0.0002687 3030. 3630.
3784(61) 0.0002687 3032. 3554.
3666(60) 0.0002778 3034. 3501.
3541(59) 0.0002873 3037. 3465.
3637(60) 0.0002778 3039. 3442.
3622(60) 0.0002778 3041. 3431.
3635(60) 0.0002778 3044. 3434.
3550(59) 0.0002873 3046. 3453.
3562(59) 0.0002873 3048. 3489.
3598(59) 0.0002873 3051. 3539.
3617(60) 0.0002778 3053. 3598.
3503(59) 0.0002873 3056. 3649.
3533(59) 0.0002873 3058. 3677.
3770(61) 0.0002687 3060. 3670.
3669(60) 0.0002778 3063. 3633.
3568(59) 0.0002873 3065. 3582.
3513(59) 0.0002873 3068. 3530.
3544(59) 0.0002873 3070. 3487.
3556(59) 0.0002873 3072. 3456.
3476(58) 0.0002973 3075. 3438.
3567(59) 0.0002873 3077. 3433.
3365(58) 0.0002973 3080. 3438.
3467(58) 0.0002973 3082. 3453.
3471(58) 0.0002973 3084. 3477.
3411(58) 0.0002973 3087. 3516.
3669(60) 0.0002778 3089. 3577.
3732(61) 0.0002687 3092. 3677.
4148(64) 0.0002441 3094. 3838.
4494(67) 0.0002228 3097. 4084.
5129(71) 0.0001984 3099. 4428.
5962(77) 0.0001687 3101. 4865.
6742(82) 0.0001487 3104. 5353.
7516(86) 0.0001352 3106. 5819.
8129(90) 0.0001235 3109. 6167.
8437(91) 0.0001208 3111. 6324.
8428(91) 0.0001208 3114. 6301.
8114(90) 0.0001235 3116. 6195.
7558(86) 0.0001352 3118. 6143.
7271(85) 0.0001384 3121. 6265.
7318(85) 0.0001384 3123. 6635.
7978(89) 0.0001262 3126. 7271.
8765(93) 0.0001156 3128. 8121.
9769(98) 0.0001041 3131. 9061.
10620(100) 0.0000943 3133. 9877.
11180(110) 0.0000907 3136. 10312.
10970(100) 0.0000925 3138. 10217.
9958(99) 0.0001020 3140. 9684.
8870(94) 0.0001132 3143. 8977.
7769(88) 0.0001291 3145. 8342.
7187(84) 0.0001417 3148. 7964.
7161(84) 0.0001417 3150. 7973.
7859(88) 0.0001291 3153. 8467.
8944(94) 0.0001132 3155. 9512.
10900(100) 0.0000925 3158. 11127.
13490(120) 0.0000743 3160. 13265.
16240(130) 0.0000620 3163. 15763.
18470(140) 0.0000549 3165. 18284.
20100(140) 0.0000503 3167. 20282.
20130(140) 0.0000503 3170. 21139.
18780(140) 0.0000533 3172. 20586.
16780(130) 0.0000601 3175. 18913.
14660(120) 0.0000683 3177. 16661.
12700(110) 0.0000797 3180. 14280.
11280(110) 0.0000890 3182. 12050.
10010(100) 0.0001000 3185. 10124.
8362(91) 0.0001208 3187. 8570.
7497(86) 0.0001352 3190. 7381.
6847(82) 0.0001487 3192. 6497.
6092(78) 0.0001644 3195. 5842.
5639(75) 0.0001778 3197. 5351.
5338(73) 0.0001877 3199. 4982.
4939(70) 0.0002041 3202. 4706.
4638(68) 0.0002163 3204. 4503.
4489(67) 0.0002228 3207. 4358.
4320(65) 0.0002367 3209. 4260.
4165(64) 0.0002441 3212. 4196.
4144(64) 0.0002441 3214. 4156.
4100(64) 0.0002441 3217. 4125.
4087(63) 0.0002520 3219. 4091.
4101(64) 0.0002441 3222. 4041.
4078(63) 0.0002520 3224. 3978.
4027(63) 0.0002520 3227. 3909.
4063(63) 0.0002520 3229. 3843.
3932(62) 0.0002601 3232. 3787.
3918(62) 0.0002601 3234. 3744.
3928(62) 0.0002601 3237. 3716.
3941(62) 0.0002601 3239. 3702.
3972(63) 0.0002520 3241. 3703.
3948(62) 0.0002601 3244. 3715.
3919(62) 0.0002601 3246. 3737.
4060(63) 0.0002520 3249. 3766.
4139(64) 0.0002441 3251. 3791.
4182(64) 0.0002441 3254. 3810.
4086(63) 0.0002520 3256. 3820.
4217(64) 0.0002441 3259. 3823.
4084(63) 0.0002520 3261. 3827.
4114(64) 0.0002441 3264. 3834.
4188(64) 0.0002441 3266. 3842.
4125(64) 0.0002441 3269. 3851.
4308(65) 0.0002367 3271. 3859.
4208(64) 0.0002441 3274. 3869.
4275(65) 0.0002367 3276. 3889.
4251(65) 0.0002367 3278. 3923.
4235(65) 0.0002367 3281. 3971.
4266(65) 0.0002367 3283. 4031.
4318(65) 0.0002367 3286. 4097.
4388(66) 0.0002296 3288. 4160.
4432(66) 0.0002296 3291. 4224.
4521(67) 0.0002228 3293. 4307.
4547(67) 0.0002228 3296. 4432.
4788(69) 0.0002100 3298. 4621.
5147(71) 0.0001984 3301. 4881.
5385(73) 0.0001877 3303. 5208.
5967(77) 0.0001687 3306. 5573.
6427(80) 0.0001562 3308. 5921.
6708(81) 0.0001524 3310. 6166.
7165(84) 0.0001417 3313. 6226.
7463(86) 0.0001352 3315. 6081.
7192(84) 0.0001417 3318. 5789.
6608(81) 0.0001524 3320. 5435.
5948(77) 0.0001687 3323. 5088.
5437(73) 0.0001877 3325. 4791.
5012(70) 0.0002041 3328. 4567.
4679(68) 0.0002163 3330. 4418.
4421(66) 0.0002296 3332. 4335.
4401(66) 0.0002296 3335. 4299.
4361(66) 0.0002296 3337. 4284.
4239(65) 0.0002367 3340. 4265.
4238(65) 0.0002367 3342. 4231.
4268(65) 0.0002367 3345. 4188.
4218(64) 0.0002441 3347. 4154.
4357(66) 0.0002296 3349. 4143.
4453(66) 0.0002296 3352. 4164.
4536(67) 0.0002228 3354. 4216.
4649(68) 0.0002163 3357. 4293.
4849(69) 0.0002100 3359. 4376.
5021(70) 0.0002041 3361. 4440.
5002(70) 0.0002041 3364. 4457.
4956(70) 0.0002041 3366. 4417.
4901(70) 0.0002041 3369. 4333.
4690(68) 0.0002163 3371. 4232.
4721(68) 0.0002163 3373. 4134.
4568(67) 0.0002228 3376. 4048.
4519(67) 0.0002228 3378. 3976.
4474(66) 0.0002296 3381. 3913.
4358(66) 0.0002296 3383. 3857.
4301(65) 0.0002367 3385. 3807.
4034(63) 0.0002520 3388. 3764.
3986(63) 0.0002520 3390. 3727.
3956(62) 0.0002601 3393. 3694.
3823(61) 0.0002687 3395. 3659.
3816(61) 0.0002687 3397. 3633.
3660(60) 0.0002778 3400. 3612.
3675(60) 0.0002778 3402. 3597.
3677(60) 0.0002778 3404. 3586.
3541(59) 0.0002873 3407. 3579.
3515(59) 0.0002873 3409. 3576.
3700(60) 0.0002778 3412. 3577.
3559(59) 0.0002873 3414. 3581.
3648(60) 0.0002778 3416. 3589.
3567(59) 0.0002873 3419. 3601.
3667(60) 0.0002778 3421. 3617.
3589(59) 0.0002873 3423. 3636.
3722(61) 0.0002687 3426. 3642.
3779(61) 0.0002687 3428. 3662.
3728(61) 0.0002687 3430. 3679.
3684(60) 0.0002778 3433. 3690.
3704(60) 0.0002778 3435. 3701.
3734(61) 0.0002687 3437. 3713.
3677(60) 0.0002778 3440. 3731.
3922(62) 0.0002601 3442. 3755.
3958(62) 0.0002601 3444. 3782.
4030(63) 0.0002520 3447. 3807.
4033(63) 0.0002520 3449. 3824.
3931(62) 0.0002601 3451. 3828.
4016(63) 0.0002520 3453. 3818.
3902(62) 0.0002601 3456. 3800.
3843(61) 0.0002687 3458. 3782.
3966(62) 0.0002601 3460. 3771.
3945(62) 0.0002601 3463. 3772.
4000(63) 0.0002520 3465. 3788.
4046(63) 0.0002520 3467. 3826.
3979(63) 0.0002520 3469. 3890.
4127(64) 0.0002441 3472. 3986.
4251(65) 0.0002367 3474. 4117.
4290(65) 0.0002367 3476. 4284.
4400(66) 0.0002296 3478. 4483.
4399(66) 0.0002296 3481. 4707.
4466(66) 0.0002296 3483. 4925.
4538(67) 0.0002228 3485. 5103.
4529(67) 0.0002228 3487. 5199.
4436(66) 0.0002296 3490. 5186.
4503(67) 0.0002228 3492. 5073.
4366(66) 0.0002296 3494. 4896.
4312(65) 0.0002367 3496. 4697.
4309(65) 0.0002367 3499. 4507.
4257(65) 0.0002367 3501. 4346.
4325(65) 0.0002367 3503. 4225.
4163(64) 0.0002441 3505. 4148.
4118(64) 0.0002441 3507. 4115.
4199(64) 0.0002441 3510. 4125.
4316(65) 0.0002367 3512. 4171.
4433(66) 0.0002296 3514. 4249.
4385(66) 0.0002296 3516. 4352.
4509(67) 0.0002228 3518. 4472.
4678(68) 0.0002163 3520. 4592.
4926(70) 0.0002041 3523. 4698.
4910(70) 0.0002041 3525. 4782.
5043(71) 0.0001984 3527. 4853.
5174(71) 0.0001984 3529. 4928.
5367(73) 0.0001877 3531. 5028.
5538(74) 0.0001826 3533. 5159.
5725(75) 0.0001778 3536. 5315.
5864(76) 0.0001731 3538. 5475.
5829(76) 0.0001731 3540. 5604.
5967(77) 0.0001687 3542. 5675.
5974(77) 0.0001687 3544. 5685.
5945(77) 0.0001687 3546. 5656.
5823(76) 0.0001731 3548. 5614.
5508(74) 0.0001826 3550. 5566.
5394(73) 0.0001877 3552. 5502.
5248(72) 0.0001929 3554. 5399.
5237(72) 0.0001929 3557. 5252.
5245(72) 0.0001929 3559. 5072.
5071(71) 0.0001984 3561. 4885.
4790(69) 0.0002100 3563. 4714.
4657(68) 0.0002163 3565. 4570.
4636(68) 0.0002163 3567. 4457.
4654(68) 0.0002163 3569. 4371.
4508(67) 0.0002228 3571. 4300.
4328(65) 0.0002367 3573. 4237.
4244(65) 0.0002367 3575. 4174.
4205(64) 0.0002441 3577. 4112.
4042(63) 0.0002520 3579. 4054.
4104(64) 0.0002441 3581. 4002.
3949(62) 0.0002601 3583. 3961.
3919(62) 0.0002601 3585. 3933.
3829(61) 0.0002687 3587. 3924.
3843(61) 0.0002687 3589. 3921.
3827(61) 0.0002687 3591. 3929.
3731(61) 0.0002687 3593. 3945.
3765(61) 0.0002687 3595. 3964.
3598(59) 0.0002873 3597. 3982.
3576(59) 0.0002873 3599. 3992.
3673(60) 0.0002778 3601. 3992.
3616(60) 0.0002778 3603. 3982.
3662(60) 0.0002778 3605. 3969.
3618(60) 0.0002778 3607. 3956.
3568(59) 0.0002873 3609. 3948.
3563(59) 0.0002873 3611. 3946.
3528(59) 0.0002873 3612. 3951.
3594(59) 0.0002873 3614. 3960.
3601(60) 0.0002778 3616. 3969.
3595(59) 0.0002873 3618. 3971.
3466(58) 0.0002973 3620. 3963.
3509(59) 0.0002873 3622. 3944.
3569(59) 0.0002873 3624. 3917.
3563(59) 0.0002873 3626. 3887.
3624(60) 0.0002778 3628. 3858.
3554(59) 0.0002873 3629. 3832.
3447(58) 0.0002973 3631. 3809.
3507(59) 0.0002873 3633. 3792.
3490(59) 0.0002873 3635. 3780.
3511(59) 0.0002873 3637. 3771.
3472(58) 0.0002973 3639. 3766.
3502(59) 0.0002873 3640. 3763.
3522(59) 0.0002873 3642. 3762.
3375(58) 0.0002973 3644. 3763.
3561(59) 0.0002873 3646. 3767.
3517(59) 0.0002873 3648. 3770.
3476(58) 0.0002973 3649. 3774.
3533(59) 0.0002873 3651. 3778.
3451(58) 0.0002973 3653. 3783.
3464(58) 0.0002973 3655. 3789.
3371(58) 0.0002973 3656. 3795.
3385(58) 0.0002973 3658. 3803.
3415(58) 0.0002973 3660. 3811.
3368(58) 0.0002973 3662. 3821.
3420(58) 0.0002973 3663. 3831.
3434(58) 0.0002973 3665. 3843.
3513(59) 0.0002873 3667. 3855.
3420(58) 0.0002973 3668. 3869.
3518(59) 0.0002873 3670. 3884.
3491(59) 0.0002873 3672. 3902.
3430(58) 0.0002973 3673. 3923.
3598(59) 0.0002873 3675. 3949.
3677(60) 0.0002778 3677. 3980.
3563(59) 0.0002873 3678. 4018.
3665(60) 0.0002778 3680. 4063.
3637(60) 0.0002778 3682. 4115.
3714(60) 0.0002778 3683. 4174.
3711(60) 0.0002778 3685. 4238.
3758(61) 0.0002687 3687. 4305.
3909(62) 0.0002601 3688. 4375.
3892(62) 0.0002601 3690. 4446.
3928(62) 0.0002601 3691. 4521.
3930(62) 0.0002601 3693. 4601.
4063(63) 0.0002520 3695. 4683.
4132(64) 0.0002441 3696. 4766.
4174(64) 0.0002441 3698. 4843.
4293(65) 0.0002367 3699. 4910.
4313(65) 0.0002367 3701. 4979.
4517(67) 0.0002228 3702. 5059.
4748(68) 0.0002163 3704. 5190.
5088(71) 0.0001984 3705. 5422.
5715(75) 0.0001778 3707. 5825.
6527(80) 0.0001562 3708. 6490.
7816(88) 0.0001291 3710. 7527.
9384(96) 0.0001085 3711. 9035.
11160(110) 0.0000907 3713. 11059.
13820(120) 0.0000731 3714. 13534.
16530(130) 0.0000610 3716. 16241.
19090(140) 0.0000525 3717. 18786.
20710(140) 0.0000489 3719. 20648.
21520(150) 0.0000469 3720. 21318.
20890(140) 0.0000482 3721. 20586.
19180(140) 0.0000525 3723. 18696.
16690(130) 0.0000601 3724. 16166.
13850(120) 0.0000731 3726. 13516.
11710(110) 0.0000857 3727. 11125.
9975(99) 0.0001020 3728. 9195.
8441(91) 0.0001208 3730. 7775.
7409(86) 0.0001352 3731. 6812.
6625(81) 0.0001524 3732. 6204.
6253(79) 0.0001602 3734. 5841.
5998(77) 0.0001687 3735. 5630.
5793(76) 0.0001731 3736. 5499.
5682(75) 0.0001778 3738. 5398.
5669(75) 0.0001778 3739. 5297.
5545(74) 0.0001826 3740. 5190.
5497(74) 0.0001826 3742. 5082.
5348(73) 0.0001877 3743. 4985.
5363(73) 0.0001877 3744. 4910.
5295(72) 0.0001929 3746. 4860.
5289(72) 0.0001929 3747. 4839.
5129(71) 0.0001984 3748. 4846.
5042(71) 0.0001984 3749. 4877.
5203(72) 0.0001929 3750. 4927.
5118(71) 0.0001984 3752. 4994.
5018(70) 0.0002041 3753. 5071.
4989(70) 0.0002041 3754. 5147.
5010(70) 0.0002041 3755. 5204.
4986(70) 0.0002041 3756. 5224.
4998(70) 0.0002041 3758. 5195.
4828(69) 0.0002100 3759. 5115.
4959(70) 0.0002041 3760. 4998.
4901(70) 0.0002041 3761. 4864.
4826(69) 0.0002100 3762. 4728.
4824(69) 0.0002100 3763. 4603.
4701(68) 0.0002163 3765. 4496.
4671(68) 0.0002163 3766. 4409.
4477(66) 0.0002296 3767. 4342.
4520(67) 0.0002228 3768. 4294.
4455(66) 0.0002296 3769. 4259.
4554(67) 0.0002228 3770. 4236.
4438(66) 0.0002296 3771. 4218.
4485(66) 0.0002296 3772. 4204.
4390(66) 0.0002296 3773. 4193.
4310(65) 0.0002367 3774. 4185.
4393(66) 0.0002296 3775. 4181.
4200(64) 0.0002441 3776. 4183.
4289(65) 0.0002367 3777. 4191.
4198(64) 0.0002441 3778. 4205.
4134(64) 0.0002441 3779. 4222.
4210(64) 0.0002441 3780. 4240.
4149(64) 0.0002441 3781. 4254.
4205(64) 0.0002441 3782. 4259.
4124(64) 0.0002441 3783. 4252.
4040(63) 0.0002520 3784. 4235.
4234(65) 0.0002367 3785. 4209.
4194(64) 0.0002441 3786. 4179.
3989(63) 0.0002520 3787. 4149.
4056(63) 0.0002520 3788. 4119.
4128(64) 0.0002441 3789. 4091.
3967(62) 0.0002601 3789. 4066.
3981(63) 0.0002520 3790. 4044.
4005(63) 0.0002520 3791. 4025.
4012(63) 0.0002520 3792. 4009.
3956(62) 0.0002601 3793. 3998.
3871(62) 0.0002601 3794. 3990.
4026(63) 0.0002520 3795. 3984.
3925(62) 0.0002601 3795. 3982.
3977(63) 0.0002520 3796. 3982.
3911(62) 0.0002601 3797. 3984.
3927(62) 0.0002601 3798. 3989.
4006(63) 0.0002520 3798. 3996.
3817(61) 0.0002687 3799. 4004.
4081(63) 0.0002520 3800. 4013.
3922(62) 0.0002601 3801. 4023.
3987(63) 0.0002520 3801. 4032.
4006(63) 0.0002520 3802. 4040.
3868(62) 0.0002601 3803. 4048.
3956(62) 0.0002601 3804. 4053.
4120(64) 0.0002441 3804. 4057.
4133(64) 0.0002441 3805. 4061.
4142(64) 0.0002441 3806. 4066.
4095(63) 0.0002520 3806. 4073.
4150(64) 0.0002441 3807. 4082.
4109(64) 0.0002441 3808. 4093.
4169(64) 0.0002441 3808. 4108.
4187(64) 0.0002441 3809. 4127.
4195(64) 0.0002441 3810. 4150.
4275(65) 0.0002367 3810. 4180.
4376(66) 0.0002296 3811. 4219.
4480(66) 0.0002296 3811. 4268.
4559(67) 0.0002228 3812. 4332.
4583(67) 0.0002228 3812. 4415.
4766(69) 0.0002100 3813. 4524.
4912(70) 0.0002041 3814. 4663.
5188(72) 0.0001929 3814. 4840.
5192(72) 0.0001929 3815. 5061.
5311(72) 0.0001929 3815. 5328.
5689(75) 0.0001778 3816. 5643.
5943(77) 0.0001687 3816. 6002.
5997(77) 0.0001687 3817. 6393.
6264(79) 0.0001602 3817. 6799.
6776(82) 0.0001487 3818. 7187.
7390(85) 0.0001384 3818. 7518.
7472(86) 0.0001352 3818. 7750.
7650(87) 0.0001321 3819. 7852.
7817(88) 0.0001291 3819. 7821.
7447(86) 0.0001352 3820. 7677.
7080(84) 0.0001417 3820. 7456.
6836(82) 0.0001487 3821. 7191.
6645(81) 0.0001524 3821. 6912.
6065(77) 0.0001687 3821. 6636.
5849(76) 0.0001731 3822. 6374.
5727(75) 0.0001778 3822. 6125.
5595(74) 0.0001826 3822. 5890.
5308(72) 0.0001929 3823. 5670.
5218(72) 0.0001929 3823. 5470.
5166(71) 0.0001984 3823. 5296.
5209(72) 0.0001929 3824. 5150.
5184(72) 0.0001929 3824. 5037.
5057(71) 0.0001984 3824. 4955.
5063(71) 0.0001984 3824. 4905.
4973(70) 0.0002041 3825. 4888.
4920(70) 0.0002041 3825. 4905.
5078(71) 0.0001984 3825. 4957.
5018(70) 0.0002041 3825. 5047.
5171(71) 0.0001984 3826. 5181.
5520(74) 0.0001826 3826. 5360.
5690(75) 0.0001778 3826. 5599.
6112(78) 0.0001644 3826. 5899.
6797(82) 0.0001487 3827. 6264.
7313(85) 0.0001384 3827. 6692.
8132(90) 0.0001235 3827. 7177.
9426(97) 0.0001063 3827. 7701.
10250(100) 0.0000980 3827. 8235.
11060(110) 0.0000907 3827. 8737.
11220(110) 0.0000907 3827. 9151.
11260(110) 0.0000890 3828. 9421.
10890(100) 0.0000925 3828. 9507.
10180(100) 0.0001000 3828. 9407.
9502(97) 0.0001063 3828. 9151.
8831(93) 0.0001156 3828. 8786.
8397(91) 0.0001208 3828. 8355.
8015(89) 0.0001262 3828. 7895.
7853(88) 0.0001291 3828. 7431.
7802(88) 0.0001291 3828. 6986.
7483(86) 0.0001352 3828. 6577.
6834(82) 0.0001487 3828. 6217.
6636(81) 0.0001524 3828. 5909.
6308(79) 0.0001602 3828. 5652.
6133(78) 0.0001644 3828. 5438.
5834(76) 0.0001731 3828. 5260.
5562(74) 0.0001826 3828. 5110.
5334(73) 0.0001877 3828. 4982.
5318(72) 0.0001929 3828. 4873.
5070(71) 0.0001984 3828. 4781.
4986(70) 0.0002041 3828. 4706.
4874(69) 0.0002100 3828. 4647.
4712(68) 0.0002163 3828. 4603.
4590(67) 0.0002228 3828. 4574.
4685(68) 0.0002163 3828. 4558.
4699(68) 0.0002163 3827. 4557.
4594(67) 0.0002228 3827. 4571.
4613(67) 0.0002228 3827. 4601.
4804(69) 0.0002100 3827. 4646.
4759(68) 0.0002163 3827. 4706.
4842(69) 0.0002100 3827. 4780.
4961(70) 0.0002041 3827. 4863.
4935(70) 0.0002041 3826. 4952.
5364(73) 0.0001877 3826. 5038.
5431(73) 0.0001877 3826. 5111.
5756(76) 0.0001731 3826. 5159.
5927(77) 0.0001687 3826. 5176.
6019(78) 0.0001644 3825. 5158.
5822(77) 0.0001687 3825. 5110.
5597(75) 0.0001778 3825. 5041.
5372(74) 0.0001826 3825. 4963.
5003(71) 0.0001984 3824. 4884.
4683(69) 0.0002100 3824. 4810.
4545(68) 0.0002163 3824. 4746.
4398(67) 0.0002228 3824. 4692.
4258(66) 0.0002296 3823. 4648.
4133(65) 0.0002367 3823. 4613.
4137(66) 0.0002296 3823. 4586.
4087(65) 0.0002367 3822. 4564.
4227(67) 0.0002228 3822. 4545.
4150(66) 0.0002296 3822. 4529.
4127(66) 0.0002296 3821. 4516.
4173(67) 0.0002228 3821. 4506.
4101(66) 0.0002296 3821. 4500.
4125(66) 0.0002296 3820. 4501.
4171(67) 0.0002228 3820. 4510.
4292(68) 0.0002163 3819. 4526.
4327(68) 0.0002163 3819. 4550.
4438(69) 0.0002100 3819. 4578.
4508(70) 0.0002041 3818. 4608.
4691(72) 0.0001929 3818. 4633.
4685(72) 0.0001929 3817. 4649.
4665(72) 0.0001929 3817. 4651.
4537(71) 0.0001984 3817. 4637.
4543(71) 0.0001984 3816. 4609.
4484(71) 0.0001984 3816. 4571.
4437(71) 0.0001984 3815. 4529.
4452(71) 0.0001984 3815. 4485.
4400(71) 0.0001984 3814. 4444.
4268(70) 0.0002041 3814. 4407.
4322(70) 0.0002041 3813. 4375.
4192(69) 0.0002100 3813. 4347.
4208(69) 0.0002100 3812. 4323.
4083(69) 0.0002100 3812. 4300.
4024(68) 0.0002163 3811. 4278.
4063(69) 0.0002100 3811. 4254.
3950(68) 0.0002163 3810. 4229.
4086(69) 0.0002100 3809. 4203.
4264(71) 0.0001984 3809. 4177.
4217(71) 0.0001984 3808. 4151.
4018(69) 0.0002100 3808. 4128.
4011(69) 0.0002100 3807. 4108.
3933(68) 0.0002163 3807. 4091.
3962(69) 0.0002100 3806. 4080.
3929(69) 0.0002100 3805. 4071.
3949(69) 0.0002100 3805. 4068.
3932(69) 0.0002100 3804. 4069.
4006(70) 0.0002041 3803. 4074.
3956(69) 0.0002100 3803. 4084.
3925(69) 0.0002100 3802. 4097.
4004(70) 0.0002041 3802. 4114.
3917(70) 0.0002041 3801. 4135.
3987(70) 0.0002041 3800. 4158.
4080(71) 0.0001984 3800. 4182.
4172(72) 0.0001929 3799. 4208.
4206(73) 0.0001877 3798. 4234.
4029(71) 0.0001984 3797. 4261.
4079(72) 0.0001929 3797. 4290.
3999(71) 0.0001984 3796. 4321.
4119(72) 0.0001929 3795. 4357.
4203(73) 0.0001877 3795. 4398.
4211(74) 0.0001826 3794. 4446.
4450(76) 0.0001731 3793. 4500.
4340(75) 0.0001778 3792. 4561.
4329(75) 0.0001778 3792. 4629.
4408(76) 0.0001731 3791. 4700.
4566(77) 0.0001687 3790. 4775.
4675(78) 0.0001644 3789. 4853.
4685(79) 0.0001602 3789. 4931.
4827(80) 0.0001562 3788. 5007.
4957(81) 0.0001524 3787. 5079.
5037(82) 0.0001487 3786. 5143.
4950(82) 0.0001487 3786. 5198.
4957(82) 0.0001487 3785. 5246.
5057(83) 0.0001452 3784. 5284.
5049(83) 0.0001452 3783. 5314.
5216(84) 0.0001417 3782. 5337.
5108(84) 0.0001417 3782. 5351.
5188(84) 0.0001417 3781. 5355.
5097(84) 0.0001417 3780. 5349.
5197(85) 0.0001384 3779. 5337.
5089(84) 0.0001417 3778. 5319.
5203(85) 0.0001384 3777. 5294.
5231(86) 0.0001352 3777. 5263.
5166(85) 0.0001384 3776. 5225.
5086(85) 0.0001384 3775. 5180.
5179(86) 0.0001352 3774. 5129.
5083(85) 0.0001384 3773. 5073.
5205(86) 0.0001352 3772. 5011.
5044(85) 0.0001384 3771. 4945.
4936(84) 0.0001417 3771. 4872.
4625(82) 0.0001487 3770. 4795.
4411(80) 0.0001562 3769. 4713.
4389(80) 0.0001562 3768. 4629.
4279(79) 0.0001602 3767. 4547.
4348(80) 0.0001562 3766. 4467.
4345(80) 0.0001562 3765. 4394.
4233(79) 0.0001602 3764. 4327.
4259(80) 0.0001562 3764. 4269.
3983(77) 0.0001687 3763. 4220.
4108(78) 0.0001644 3762. 4179.
4295(80) 0.0001562 3761. 4146.
4304(81) 0.0001524 3760. 4121.
4192(80) 0.0001562 3759. 4103.
4184(80) 0.0001562 3758. 4092.
4036(79) 0.0001602 3757. 4086.
3990(78) 0.0001644 3756. 4084.
4114(80) 0.0001562 3755. 4086.
4039(79) 0.0001602 3754. 4096.
4154(80) 0.0001562 3753. 4101.
4165(81) 0.0001524 3752. 4107.
4177(81) 0.0001524 3752. 4113.
4192(81) 0.0001524 3751. 4114.
4223(82) 0.0001487 3750. 4120.
4250(82) 0.0001487 3749. 4127.
4148(81) 0.0001524 3748. 4135.
4118(81) 0.0001524 3747. 4144.
4066(81) 0.0001524 3746. 4154.
3973(80) 0.0001562 3745. 4166.
4047(81) 0.0001524 3744. 4177.
4104(82) 0.0001487 3743. 4188.
4142(82) 0.0001487 3742. 4197.
4176(83) 0.0001452 3741. 4204.
4124(82) 0.0001487 3740. 4209.
3940(81) 0.0001524 3739. 4211.
4198(83) 0.0001452 3738. 4213.
4188(83) 0.0001452 3737. 4213.
4045(82) 0.0001487 3736. 4212.
4066(82) 0.0001487 3735. 4210.
4188(84) 0.0001417 3734. 4206.
4250(85) 0.0001384 3733. 4203.
4155(84) 0.0001417 3732. 4195.
4176(84) 0.0001417 3732. 4187.
4104(84) 0.0001417 3731. 4180.
4190(85) 0.0001384 3730. 4174.
4229(85) 0.0001384 3729. 4172.
4142(85) 0.0001384 3728. 4174.
4117(85) 0.0001384 3727. 4179.
4209(86) 0.0001352 3726. 4189.
4275(86) 0.0001352 3725. 4202.
4379(88) 0.0001291 3724. 4217.
4251(87) 0.0001321 3723. 4235.
4265(87) 0.0001321 3722. 4254.
4287(87) 0.0001321 3721. 4273.
4320(88) 0.0001291 3720. 4291.
4226(87) 0.0001321 3719. 4307.
4301(88) 0.0001291 3718. 4320.
4409(89) 0.0001262 3717. 4331.
4390(89) 0.0001262 3716. 4343.
4532(91) 0.0001208 3715. 4360.
4466(90) 0.0001235 3714. 4390.
4610(92) 0.0001181 3713. 4441.
4753(94) 0.0001132 3713. 4523.
4621(93) 0.0001156 3712. 4640.
4898(95) 0.0001108 3711. 4794.
5100(98) 0.0001041 3710. 4977.
5137(98) 0.0001041 3709. 5175.
5510(100) 0.0000961 3708. 5363.
5610(100) 0.0000943 3707. 5509.
5760(110) 0.0000907 3706. 5582.
5710(100) 0.0000925 3705. 5563.
5570(100) 0.0000943 3704. 5460.
5260(100) 0.0000980 3703. 5298.
5086(99) 0.0001020 3702. 5108.
4979(98) 0.0001041 3702. 4919.
4607(95) 0.0001108 3701. 4751.
4673(95) 0.0001108 3700. 4613.
4767(97) 0.0001063 3699. 4511.
4533(94) 0.0001132 3698. 4440.
4350(93) 0.0001156 3697. 4398.
4388(93) 0.0001156 3696. 4378.
4478(94) 0.0001132 3695. 4375.
4469(95) 0.0001108 3695. 4386.
4382(94) 0.0001132 3694. 4408.
4535(96) 0.0001085 3693. 4439.
4515(96) 0.0001085 3692. 4478.
4554(96) 0.0001085 3691. 4524.
4771(99) 0.0001020 3690. 4575.
4764(99) 0.0001020 3690. 4630.
5100(100) 0.0000961 3689. 4685.
5120(100) 0.0000943 3688. 4738.
5230(100) 0.0000925 3687. 4784.
5130(100) 0.0000943 3686. 4819.
5240(110) 0.0000907 3686. 4840.
5110(100) 0.0000925 3685. 4845.
4920(100) 0.0000961 3684. 4834.
4800(100) 0.0000980 3683. 4807.
4710(100) 0.0001000 3683. 4767.
4611(99) 0.0001020 3682. 4717.
4609(99) 0.0001020 3681. 4659.
4535(99) 0.0001020 3680. 4596.
4489(99) 0.0001020 3680. 4530.
4437(98) 0.0001041 3679. 4465.
4252(96) 0.0001085 3678. 4401.
4317(97) 0.0001063 3677. 4342.
4281(97) 0.0001063 3677. 4288.
4094(95) 0.0001108 3676. 4240.
4015(94) 0.0001132 3675. 4199.
4204(97) 0.0001063 3675. 4164.
4206(97) 0.0001063 3674. 4137.
4198(97) 0.0001063 3673. 4116.
4058(96) 0.0001085 3673. 4103.
4134(97) 0.0001063 3672. 4096.
4118(97) 0.0001063 3672. 4097.
4195(98) 0.0001041 3671. 4106.
4263(99) 0.0001020 3670. 4122.
4277(99) 0.0001020 3670. 4147.
4350(100) 0.0001000 3669. 4182.
4340(100) 0.0001000 3669. 4226.
4340(100) 0.0000980 3668. 4282.
4430(100) 0.0000961 3668. 4350.
4680(110) 0.0000907 3667. 4431.
4450(100) 0.0000961 3667. 4526.
4740(110) 0.0000890 3666. 4634.
4660(110) 0.0000907 3666. 4757.
4800(110) 0.0000873 3665. 4894.
4980(110) 0.0000842 3665. 5043.
5130(110) 0.0000812 3664. 5204.
5530(120) 0.0000743 3664. 5372.
5770(120) 0.0000718 3663. 5545.
5840(120) 0.0000706 3663. 5717.
6400(130) 0.0000640 3662. 5882.
6660(130) 0.0000610 3662. 6033.
7010(130) 0.0000574 3662. 6160.
7280(140) 0.0000549 3661. 6255.
7680(140) 0.0000525 3661. 6311.
7810(140) 0.0000510 3661. 6323.
7760(140) 0.0000510 3660. 6291.
7620(140) 0.0000518 3660. 6218.
7210(140) 0.0000549 3660. 6110.
6870(130) 0.0000574 3660. 5976.
6510(130) 0.0000601 3659. 5823.
6180(130) 0.0000630 3659. 5660.
5850(120) 0.0000661 3659. 5494.
5400(120) 0.0000718 3659. 5329.
5230(120) 0.0000731 3658. 5171.
4960(110) 0.0000769 3658. 5021.
4920(110) 0.0000769 3658. 4882.
4630(110) 0.0000826 3658. 4755.
4680(110) 0.0000812 3658. 4641.
4600(110) 0.0000812 3658. 4539.
4480(110) 0.0000842 3658. 4451.
4400(110) 0.0000857 3658. 4375.
4360(110) 0.0000857 3658. 4311.
4320(110) 0.0000857 3658. 4258.
4130(110) 0.0000890 3658. 4214.
4060(110) 0.0000907 3658. 4178.
4150(110) 0.0000873 3658. 4150.
4240(110) 0.0000857 3658. 4127.
4030(110) 0.0000907 3658. 4110.
3990(110) 0.0000907 3658. 4097.
4090(110) 0.0000873 3658. 4086.
4040(110) 0.0000890 3658. 4078.
4180(110) 0.0000857 3658. 4069.
4100(110) 0.0000857 3658. 4062.
4160(110) 0.0000857 3659. 4054.
4100(110) 0.0000857 3659. 4047.
4160(110) 0.0000842 3659. 4039.
4020(110) 0.0000873 3659. 4031.
4070(110) 0.0000857 3660. 4022.
4080(110) 0.0000842 3660. 4015.
4070(110) 0.0000842 3660. 4010.
3970(110) 0.0000857 3661. 4005.
3790(110) 0.0000907 3661. 4003.
3860(110) 0.0000873 3661. 4002.
3860(110) 0.0000873 3662. 4003.
3880(110) 0.0000873 3662. 4007.
4050(110) 0.0000826 3663. 4012.
3980(110) 0.0000842 3663. 4019.
3870(110) 0.0000857 3664. 4028.
3910(110) 0.0000842 3664. 4039.
4140(110) 0.0000797 3665. 4050.
4020(110) 0.0000812 3665. 4062.
3850(110) 0.0000842 3666. 4073.
3970(110) 0.0000812 3667. 4084.
4040(110) 0.0000797 3667. 4093.
4060(110) 0.0000797 3668. 4101.
4260(120) 0.0000756 3669. 4106.
4220(120) 0.0000756 3669. 4109.
4270(120) 0.0000743 3670. 4110.
4170(120) 0.0000756 3671. 4110.
4220(120) 0.0000743 3672. 4108.
4180(120) 0.0000756 3673. 4105.
4290(120) 0.0000731 3673. 4102.
4260(120) 0.0000731 3674. 4098.
4050(110) 0.0000769 3675. 4095.
4000(110) 0.0000769 3676. 4093.
4000(110) 0.0000769 3677. 4091.
3900(110) 0.0000783 3678. 4090.
3890(110) 0.0000783 3679. 4091.
3910(110) 0.0000769 3680. 4093.
4030(120) 0.0000743 3682. 4097.
3940(120) 0.0000756 3683. 4103.
4020(120) 0.0000743 3684. 4111.
3980(120) 0.0000743 3685. 4121.
3960(120) 0.0000743 3686. 4133.
4030(120) 0.0000731 3688. 4148.
3930(120) 0.0000743 3689. 4164.
4030(120) 0.0000731 3690. 4183.
3980(120) 0.0000731 3692. 4203.
4020(120) 0.0000718 3693. 4224.
4190(120) 0.0000683 3694. 4247.
4170(120) 0.0000683 3696. 4272.
4240(120) 0.0000672 3697. 4298.
4190(120) 0.0000683 3699. 4326.
4150(120) 0.0000683 3700. 4355.
4520(130) 0.0000620 3702. 4385.
4420(130) 0.0000630 3704. 4416.
4650(130) 0.0000601 3705. 4447.
4590(130) 0.0000601 3707. 4477.
4720(130) 0.0000583 3709. 4506.
4610(130) 0.0000601 3711. 4533.
4760(130) 0.0000574 3712. 4558.
4750(130) 0.0000574 3714. 4581.
4740(130) 0.0000574 3716. 4601.
4660(130) 0.0000583 3718. 4620.
4690(130) 0.0000574 3720. 4638.
4430(130) 0.0000601 3722. 4657.
4480(130) 0.0000592 3724. 4679.
4360(130) 0.0000610 3726. 4704.
4520(130) 0.0000583 3728. 4734.
4300(130) 0.0000610 3731. 4770.
4330(130) 0.0000601 3733. 4813.
4440(130) 0.0000583 3735. 4864.
4410(130) 0.0000592 3737. 4921.
4470(130) 0.0000574 3740. 4987.
4330(130) . . .
4230(130) . . .
4250(130) . . .
4490(130) . . .
4370(130) . . .
4190(130) . . .
4450(130) . . .
4560(140) . . .
4720(140) . . .
4820(140) . . .
5020(140) . . .
5170(150) . . .
5540(150) . . .
5830(160) . . .
6170(160) . . .
6010(160) . . .
6040(160) . . .
5840(160) . . .
5780(160) . . .
5530(150) . . .
5190(150) . . .
4930(150) . . .
4580(140) . . .
4490(140) . . .
4470(140) . . .
4090(130) . . .
4140(140) . . .
4060(130) . . .
4020(130) . . .
3920(130) . . .
3960(130) . . .
3950(130) . . .
3660(130) . . .
3560(130) . . .
3780(130) . . .
3620(130) . . .
3430(130) . . .
3580(130) . . .
3660(130) . . .
3540(130) . . .
3700(130) . . .
3950(140) . . .
3960(140) . . .
4170(140) . . .
4020(140) . . .
4060(140) . . .
4260(140) . . .
4320(150) . . .
4580(150) . . .
4580(150) . . .
5000(160) . . .
4930(160) . . .
5300(160) . . .
5820(170) . . .
6090(180) . . .
6840(190) . . .
7540(200) . . .
8490(210) . . .
9560(220) . . .
10770(240) . . .
11450(250) . . .
11690(250) . . .
12360(260) . . .
12220(260) . . .
11930(250) . . .
11780(250) . . .
11050(240) . . .
10130(230) . . .
9680(230) . . .
8610(220) . . .
7720(210) . . .
7070(200) . . .
6390(190) . . .
5970(180) . . .
5800(180) . . .
5410(180) . . .
5380(170) . . .
5420(180) . . .
4980(170) . . .
0.0(10) . . .
loop_
_pd_phase_id
_pd_phase_block_id
_pd_phase_mass_%
_pd_proc_ls_profile_function
_pd_proc_ls_peak_cutoff
1 2009-08-27T22:46|A_BA4TA2O9_RT_phase1|Chris_Ling|| 90.88
;
 CW Profile function number 2 with  18 terms
 Profile coefficients for Simpson's rule integration of pseudovoigt function
 C.J. Howard (1982). J. Appl. Cryst.,15,615-620.
 P. Thompson, D.E. Cox & J.B. Hastings (1987). J. Appl. Cryst.,20,79-83.
 #1(GU)   =  179.004 #2(GV)   = -372.713 #3(GW)   =  314.039
 #4(LX)   =    0.000 #5(LY)   =   16.295 #6(trns) =    0.000
 #7(asym) =   0.0568 #8(shft) =   0.0000 #9(GP)   =    0.000
 #10(stec)=     0.00 #11(ptec)=     0.00 #12(sfec)=     0.00
 #13(L11) =    0.000 #14(L22) =    0.000 #15(L33) =    0.000
 #16(L12) =    0.000 #17(L13) =    0.000 #18(L23) =    0.000
 Peak tails are ignored  where the intensity is below 0.0010 times the peak
   Aniso. broadening axis   0.0   0.0   1.0
;
0.00100
loop_
_refln_index_h
_refln_index_k
_refln_index_l
_pd_refln_phase_id
_refln_observed_status
_refln_F_squared_meas
_refln_F_squared_calc
_refln_phase_calc
_refln_d_spacing
_gsas_i100_meas
1 0 0 1 o 0.000 0.010 0.00 8.89325 0.00
1 0 1 1 o 6.317 7.199 0.00 6.13446 14.22
1 1 0 1 o 20.810 19.245 4.20 5.13452 16.62
2 0 0 1 o 0.028 0.002 -180.00 4.44663 0.02
0 0 2 1 o 9.456 8.348 0.00 4.23645 1.75
2 0 1 1 o 1.995 1.166 180.00 3.93735 1.93
1 0 2 1 o 9.170 11.666 180.00 3.82466 8.41
2 1 0 1 o 1.811 3.837 -88.32 3.36133 1.31
1 1 2 1 o 2.884 4.170 -43.80 3.26774 1.99
2 1 1 1 o 1.648 2.571 -85.59 3.12444 2.09
2 0 2 1 o 4.065 3.850 180.00 3.06723 2.50
3 0 0 1 o 28.017 24.245 0.00 2.96442 8.11
3 0 1 1 o 0.000 0.403 0.00 2.79810 0.00
1 0 3 1 o 2.629 1.102 -180.00 2.69181 1.29
2 1 2 1 o 0.636 0.142 -105.42 2.63317 0.60
2 2 0 1 o 39.133 39.968 166.90 2.56726 8.85
3 1 0 1 o 3.638 4.828 -85.95 2.46654 1.54
3 0 2 1 o 0.755 0.194 0.00 2.42884 0.31
2 0 3 1 o 6.193 3.877 180.00 2.38405 2.48
3 1 1 1 o 6.839 5.069 105.24 2.36824 5.41
1 1 0 2 o 1.918 1.738 0.00 2.33431 27.24
4 0 0 1 o 0.026 0.038 0.00 2.22331 0.00
2 2 2 1 o 285.493 267.894 90.28 2.19558 100.00
2 1 3 1 o 10.611 12.059 4.63 2.16233 7.26
4 0 1 1 o 0.562 0.397 0.00 2.15051 0.19
3 1 2 1 o 2.930 1.967 179.91 2.13158 1.96
0 0 4 1 o 371.760 282.337 0.00 2.11822 20.52
1 0 4 1 o 0.992 0.639 -180.00 2.06058 0.31
3 0 3 1 o 0.061 0.137 -180.00 2.04482 0.02
3 2 0 1 o 0.523 1.647 -104.14 2.04025 0.16
3 2 1 1 o 4.813 4.564 -95.01 1.98356 2.88
4 0 2 1 o 0.502 0.327 180.00 1.96867 0.15
1 1 4 1 o 1.705 1.282 158.04 1.95814 0.50
4 1 0 1 o 4.092 3.003 18.51 1.94067 1.19
2 0 4 1 o 0.000 0.035 -180.00 1.91233 0.00
4 1 1 1 o 0.054 0.272 -43.76 1.89168 0.03
3 1 3 1 o 7.298 10.602 -164.95 1.85780 3.97
3 2 2 1 o 0.526 0.166 171.71 1.83819 0.28
2 1 4 1 o 0.000 0.791 -74.66 1.79207 0.00
5 0 0 1 o 0.000 0.166 180.00 1.77865 0.00
4 1 2 1 o 0.000 0.467 -43.34 1.76436 0.00
4 0 3 1 o 0.244 5.030 0.00 1.74696 0.06
5 0 1 1 o 0.256 2.442 -180.00 1.74071 0.06
3 0 4 1 o 0.417 1.081 0.00 1.72345 0.10
3 3 0 1 o 17.382 22.211 9.93 1.71151 2.11
4 2 0 1 o 0.429 0.778 -92.97 1.68067 0.10
1 0 5 1 o 3.322 2.617 0.00 1.66463 0.78
3 2 3 1 o 11.680 13.426 9.81 1.65386 5.43
4 2 1 1 o 0.787 0.848 165.66 1.64855 0.36
5 0 2 1 o 13.936 14.345 -180.00 1.63997 3.20
2 2 4 1 o 81.518 82.365 167.02 1.63387 18.64
2 0 0 2 o 1.363 1.517 0.00 1.65060 5.80
3 1 4 1 o 0.228 1.256 -69.30 1.60697 0.10
4 1 3 1 o 0.095 0.304 113.82 1.59946 0.04
5 1 0 1 o 0.535 1.275 99.65 1.59728 0.12
3 3 2 1 o 3.911 4.457 80.97 1.58690 0.86
2 0 5 1 o 2.037 2.508 -180.00 1.58349 0.45
5 1 1 1 o 0.892 3.362 17.16 1.56963 0.39
4 2 2 1 o 0.686 1.936 -173.54 1.56222 0.30
4 0 4 1 o 0.002 0.002 0.00 1.53362 0.00
2 1 5 1 o 9.210 7.319 -60.41 1.51316 3.84
5 0 3 1 o 0.031 0.016 -180.00 1.50506 0.01
5 1 2 1 o 9.345 10.043 -177.03 1.49457 3.84
6 0 0 1 o 447.907 398.508 0.00 1.48221 45.55
3 0 5 1 o 0.672 0.520 0.00 1.47117 0.14
3 2 4 1 o 0.072 0.053 -112.02 1.46947 0.03
4 3 0 1 o 9.633 6.451 86.37 1.46204 1.93
6 0 1 1 o 0.000 0.000 179.99 1.46004 0.00
4 2 3 1 o 4.287 3.034 -176.20 1.44429 1.69
4 3 1 1 o 2.031 2.034 53.35 1.44075 0.80
4 1 4 1 o 9.057 7.921 167.51 1.43092 3.55
5 2 0 1 o 12.210 8.983 3.92 1.42406 2.38
0 0 6 1 o 7.679 4.395 0.00 1.41215 0.25
5 2 1 1 o 1.421 0.703 -120.10 1.40436 0.55
6 0 2 1 o 6.841 5.723 0.00 1.39905 1.31
3 1 5 1 o 13.439 11.722 124.11 1.39671 5.13
1 0 6 1 o 6.379 4.867 0.00 1.39468 1.22
5 1 3 1 o 1.242 0.585 -112.41 1.39033 0.47
4 3 2 1 o 1.374 0.780 147.17 1.38205 0.52
5 0 4 1 o 1.126 1.141 -180.00 1.36213 0.21
1 1 6 1 o 5.523 5.773 -96.58 1.36159 1.03
6 1 0 1 o 0.945 1.198 -74.89 1.35621 0.18
5 2 2 1 o 3.695 3.704 63.77 1.34984 1.36
4 0 5 1 o 1.619 1.594 0.00 1.34774 0.30
2 0 6 1 o 2.722 2.731 0.00 1.34591 0.50
6 1 1 1 o 4.099 4.769 166.93 1.33916 1.50
2 1 1 2 o 1.326 1.325 0.00 1.34771 17.96
3 3 4 1 o 3.142 1.997 31.33 1.33126 0.57
4 2 4 1 o 1.524 0.454 -102.88 1.31659 0.55
6 0 3 1 o 0.000 0.000 0.00 1.31245 0.00
3 2 5 1 o 12.842 9.878 -69.73 1.30358 4.60
2 1 6 1 o 7.314 6.085 -28.82 1.30192 2.61
4 3 3 1 o 6.019 4.723 -8.62 1.29839 2.15
6 1 2 1 o 5.341 5.903 170.09 1.29164 1.90
4 4 0 1 o 23.322 23.959 -165.65 1.28363 2.06
4 1 5 1 o 0.181 0.206 -20.73 1.27644 0.06
5 1 4 1 o 1.363 1.693 132.18 1.27533 0.48
3 0 6 1 o 1.279 1.633 180.00 1.27489 0.22
5 2 3 1 o 0.902 1.079 76.76 1.27157 0.32
7 0 0 1 o 0.305 0.317 0.00 1.27046 0.03
5 3 0 1 o 0.693 0.721 115.66 1.27046 0.12
5 3 1 1 o 1.577 1.424 -68.10 1.25642 0.55
7 0 1 1 o 5.901 5.331 0.00 1.25642 1.02
2 2 6 1 o 124.934 123.332 101.12 1.23732 21.46
6 2 0 1 o 1.366 1.483 99.68 1.23327 0.23
4 4 2 1 o 150.036 159.773 -90.91 1.22848 25.64
5 0 5 1 o 1.024 1.104 -180.00 1.22689 0.17
3 1 6 1 o 1.602 1.797 -38.29 1.22551 0.55
6 1 3 1 o 1.099 1.455 -33.02 1.22256 0.37
6 2 1 1 o 0.628 0.871 23.00 1.22041 0.21
5 3 2 1 o 0.397 0.450 28.73 1.21692 0.13
7 0 2 1 o 4.212 4.775 180.00 1.21692 0.72
6 0 4 1 o 161.977 168.318 0.00 1.21442 27.46
4 3 4 1 o 3.244 2.561 77.64 1.20325 1.09
1 0 7 1 o 18.690 10.819 -180.00 1.19936 3.14
4 2 5 1 o 2.751 1.986 169.81 1.19330 0.92
4 0 6 1 o 6.038 4.968 0.00 1.19203 1.01
6 2 2 1 o 3.231 3.728 170.14 1.18412 1.08
5 2 4 1 o 1.427 1.390 175.51 1.18181 0.48
7 1 0 1 o 21.539 16.050 -4.58 1.17794 3.59
2 0 7 1 o 0.000 0.000 0.00 1.16792 0.00
7 1 1 1 o 0.135 0.140 -77.35 1.16672 0.04
5 1 5 1 o 1.123 1.279 15.63 1.16232 0.37
3 2 6 1 o 3.072 3.462 -26.75 1.16115 1.02
5 3 3 1 o 9.460 8.896 -178.99 1.15864 3.12
7 0 3 1 o 1.860 1.749 -180.00 1.15864 0.31
2 2 0 2 o 1.089 1.157 0.00 1.16715 6.63
6 1 4 1 o 0.786 1.017 -115.35 1.14216 0.26
4 1 6 1 o 2.642 3.482 -118.43 1.14184 0.87
2 1 7 1 o 2.201 2.688 -21.04 1.13883 0.72
5 4 0 1 o 1.605 1.943 90.51 1.13866 0.26
7 1 2 1 o 7.298 8.282 -61.13 1.13489 2.39
6 2 3 1 o 1.448 1.713 -12.67 1.13022 0.47
5 4 1 1 o 3.538 3.937 82.45 1.12852 1.15
3 0 7 1 o 0.018 0.016 -180.00 1.12060 0.00
6 3 0 1 o 21.134 18.466 -7.42 1.12044 3.44
6 0 5 1 o 0.000 0.000 -0.14 1.11565 0.00
8 0 0 1 o 0.032 0.029 180.00 1.11166 0.00
6 3 1 1 o 0.716 0.704 -167.55 1.11077 0.23
4 3 5 1 o 4.416 5.647 41.48 1.10698 1.43
5 0 6 1 o 0.842 1.025 0.00 1.10596 0.14
8 0 1 1 o 0.409 0.408 180.00 1.10221 0.07
5 4 2 1 o 1.383 1.437 -158.83 1.09964 0.45
4 4 4 1 o 49.003 49.727 -166.04 1.09779 7.92
5 2 5 1 o 0.243 0.340 -146.00 1.09021 0.08
7 0 4 1 o 0.020 0.028 180.00 1.08952 0.00
5 3 4 1 o 0.038 0.053 175.96 1.08952 0.01
3 3 6 1 o 2.342 3.280 129.57 1.08925 0.38
7 1 3 1 o 0.179 0.259 94.35 1.08717 0.06
3 1 7 1 o 1.583 2.271 175.00 1.08662 0.51
7 2 0 1 o 2.924 4.172 -81.29 1.08648 0.47
6 3 2 1 o 2.505 2.986 -65.07 1.08320 0.81
4 2 6 1 o 1.534 2.254 -5.06 1.08117 0.49
7 2 1 1 o 0.137 0.258 137.80 1.07766 0.04
8 0 2 1 o 0.612 3.075 -180.00 1.07525 0.10
6 2 4 1 o 0.636 0.997 106.81 1.06579 0.20
4 0 7 1 o 0.103 0.119 0.00 1.06308 0.02
0 0 8 1 o 49.247 58.334 0.00 1.05911 1.32
6 1 5 1 o 1.363 1.613 167.64 1.05885 0.44
5 1 6 1 o 1.673 1.968 -10.09 1.05797 0.54
5 4 3 1 o 6.066 6.856 -19.05 1.05607 1.95
7 2 2 1 o 0.423 0.354 -56.71 1.05242 0.14
1 0 8 1 o 2.114 1.820 180.00 1.05168 0.34
6 3 3 1 o 0.244 0.274 27.27 1.04148 0.08
3 2 7 1 o 3.244 3.532 -12.63 1.04100 1.04
8 1 0 1 o 1.340 1.445 -82.03 1.04088 0.22
1 1 8 1 o 12.645 11.019 174.51 1.03727 2.03
8 0 3 1 o 1.298 1.572 -180.00 1.03441 0.21
3 1 0 2 o 0.886 1.010 0.00 1.04393 10.47
8 1 1 1 o 0.094 0.147 -114.52 1.03311 0.03
2 0 8 1 o 0.002 0.004 0.00 1.03029 0.00
7 1 4 1 o 0.029 0.050 -74.69 1.02947 0.01
4 1 7 1 o 0.106 0.234 99.50 1.02702 0.03
5 5 0 1 o 0.249 0.545 -132.74 1.02690 0.02
6 0 6 1 o 2.329 3.287 0.00 1.02241 0.38
6 4 0 1 o 0.230 0.195 42.03 1.02013 0.04
7 0 5 1 o 1.658 1.796 0.00 1.01651 0.27
5 3 5 1 o 3.301 3.575 -103.53 1.01651 1.06
4 3 6 1 o 2.469 2.737 38.67 1.01572 0.80
7 2 3 1 o 3.450 3.414 172.99 1.01404 1.11
6 4 1 1 o 0.171 0.148 171.96 1.01281 0.06
8 1 2 1 o 0.907 0.692 -28.52 1.01081 0.29
2 1 8 1 o 1.587 1.148 44.05 1.01015 0.51
5 0 7 1 o 3.096 3.157 0.00 1.00068 0.50
7 3 0 1 o 3.909 3.938 -81.03 1.00057 0.63
5 4 4 1 o 0.313 0.316 70.16 1.00294 0.10
5 2 6 1 o 5.719 5.893 100.92 1.00272 1.85
5 5 2 1 o 0.176 0.136 121.70 0.99800 0.03
3 0 8 1 o 0.906 0.690 0.00 0.99737 0.15
6 2 5 1 o 1.913 1.453 15.98 0.99715 0.62
7 3 1 1 o 2.543 2.284 -49.98 0.99366 0.83
6 4 2 1 o 0.008 0.009 42.93 0.99178 0.00
6 3 4 1 o 2.243 2.656 -17.98 0.99042 0.73
9 0 0 1 o 16.841 17.019 0.00 0.98814 1.37
8 0 4 1 o 0.121 0.072 180.00 0.98434 0.02
4 2 7 1 o 0.008 0.005 179.33 0.98220 0.00
9 0 1 1 o 1.453 1.098 0.00 0.98149 0.24
2 2 8 1 o 51.954 49.389 159.78 0.97907 8.49
6 1 6 1 o 3.561 3.438 13.68 0.97816 1.16
8 1 3 1 o 4.583 5.002 -9.90 0.97666 1.50
7 3 2 1 o 1.205 1.596 -175.51 0.97378 0.40
3 1 8 1 o 1.065 1.428 33.05 0.97319 0.35
8 2 0 1 o 11.944 14.921 162.82 0.97033 1.96
7 1 5 1 o 0.040 0.038 -58.66 0.96722 0.01
7 2 4 1 o 1.861 1.754 -73.35 0.96673 0.61
5 1 7 1 o 5.073 4.982 -162.58 0.96471 1.67
8 2 1 1 o 0.000 0.000 70.73 0.96403 0.00
9 0 2 1 o 1.477 1.200 0.00 0.96231 0.24
6 4 3 1 o 2.485 2.330 -174.59 0.95946 0.82
4 0 8 1 o 0.041 0.036 0.00 0.95616 0.01
4 4 6 1 o 82.798 74.976 -101.99 0.94986 13.83
8 2 2 1 o 94.494 96.422 90.93 0.94584 31.69
5 4 5 1 o 7.779 7.983 62.62 0.94512 2.61
7 0 6 1 o 3.544 3.583 0.00 0.94448 0.60
5 3 6 1 o 5.245 5.302 26.15 0.94448 1.76
7 3 3 1 o 2.513 2.355 19.59 0.94313 0.84
2 2 2 2 o 1.345 0.882 0.00 0.95298 5.49
3 2 8 1 o 1.999 1.749 67.02 0.94000 0.67
6 0 7 1 o 0.000 0.000 0.00 0.93752 0.00
1 0 9 1 o 3.714 2.489 -180.00 0.93620 0.63
6 3 5 1 o 1.336 0.894 -174.43 0.93462 0.45
8 1 4 1 o 0.518 0.349 -68.72 0.93418 0.18
9 0 3 1 o 0.466 0.346 180.00 0.93270 0.08
4 3 7 1 o 0.873 0.665 17.97 0.93236 0.30
6 5 0 1 o 0.805 0.617 -124.84 0.93227 0.14
9 1 0 1 o 3.335 2.556 -75.52 0.93227 0.57
4 1 8 1 o 20.801 15.871 174.04 0.92968 7.10
8 0 5 1 o 1.010 0.764 180.00 0.92950 0.17
6 2 6 1 o 1.099 0.817 15.87 0.92890 0.38
6 5 1 1 o 0.656 0.539 -35.24 0.92667 0.22
9 1 1 1 o 3.277 2.691 115.52 0.92667 1.12
5 2 7 1 o 1.558 0.918 85.55 0.92227 0.54
7 4 0 1 o 0.655 0.385 -40.58 0.92219 0.11
5 5 4 1 o 15.994 10.755 -170.32 0.92404 2.75
2 0 9 1 o 1.332 0.820 0.00 0.92102 0.23
6 4 4 1 o 0.098 0.078 40.01 0.91909 0.03
8 2 3 1 o 0.000 0.000 -163.92 0.91768 0.00
7 4 1 1 o 0.872 0.731 136.70 0.91677 0.30
7 2 5 1 o 2.040 1.528 144.62 0.91463 0.71
6 5 2 1 o 6.405 7.525 -177.37 0.91048 2.25
9 1 2 1 o 1.679 1.973 165.95 0.91048 0.59
5 0 8 1 o 1.587 1.882 180.00 0.91000 0.28
2 1 9 1 o 5.143 4.697 -109.79 0.90655 1.82
7 3 4 1 o 1.847 1.696 -68.27 0.90471 0.66
7 1 6 1 o 8.575 7.924 -87.90 0.90456 3.05
6 1 7 1 o 7.798 7.625 -13.16 0.90305 2.78
8 3 0 1 o 0.546 0.534 -146.13 0.90297 0.10
7 4 2 1 o 1.571 1.549 -91.41 0.90109 0.56
3 3 8 1 o 1.158 1.197 27.13 0.90062 0.21
3 0 9 1 o 0.038 0.322 0.00 0.89727 0.01
4 2 8 1 o 0.000 0.067 -74.48 0.89604 0.00
9 0 4 1 o 0.000 2.913 0.00 0.89549 0.00
8 3 1 1 o 0.379 1.455 64.47 0.89789 0.14
10 0 0 1 o 0.000 0.344 0.00 0.88933 0.00
8 1 5 1 o 0.100 0.978 -61.29 0.88692 0.04
5 4 6 1 o 0.100 0.434 25.69 0.88640 0.04
6 5 3 1 o 0.285 0.589 41.83 0.88528 0.11
9 1 3 1 o 1.495 3.088 -155.51 0.88528 0.55
10 0 1 1 o 0.009 0.013 0.00 0.88447 0.00
8 3 2 1 o 0.119 0.132 -4.26 0.88314 0.04
5 1 8 1 o 1.804 1.927 153.81 0.88269 0.67
8 2 4 1 o 29.821 30.721 164.04 0.88218 11.13
6 3 6 1 o 1.490 1.326 -114.93 0.87772 0.56
3 1 9 1 o 6.519 5.685 86.42 0.87954 2.45
7 4 3 1 o 0.862 0.830 -67.10 0.87664 0.33
5 3 7 1 o 2.638 2.541 -152.04 0.87635 1.00
7 0 7 1 o 8.787 8.464 180.00 0.87635 1.67
9 2 0 1 o 0.693 0.666 -119.22 0.87628 0.13
6 4 5 1 o 0.877 0.697 -179.11 0.87398 0.34
8 0 6 1 o 0.932 0.758 0.00 0.87348 0.18
9 2 1 1 o 1.914 2.047 -99.89 0.87163 0.74
10 0 2 1 o 0.553 0.637 0.00 0.87035 0.11
3 2 1 2 o 0.776 0.770 0.00 0.88229 21.30
4 0 9 1 o 0.692 0.767 180.00 0.86692 0.14
6 0 8 1 o 34.528 35.812 0.00 0.86173 6.87
6 2 7 1 o 0.043 0.037 -124.71 0.86386 0.02
7 3 5 1 o 5.010 5.227 -39.66 0.86159 2.00
7 2 6 1 o 3.791 4.016 -28.28 0.86111 1.51
8 3 3 1 o 5.361 5.671 -176.75 0.86008 2.15
9 2 2 1 o 0.179 0.166 120.30 0.85811 0.07
4 3 8 1 o 0.772 0.696 2.45 0.85771 0.31
6 6 0 1 o 174.428 144.954 -0.57 0.85575 17.77
3 2 9 1 o 8.242 6.909 -105.89 0.85482 3.37
9 0 5 1 o 1.809 1.459 0.00 0.85361 0.37
9 1 4 1 o 1.243 1.002 -56.11 0.85328 0.51
6 5 4 1 o 1.254 1.011 -146.29 0.85328 0.52
5 2 8 1 o 9.260 8.077 178.15 0.84984 3.87
7 5 0 1 o 1.450 1.247 89.16 0.85182 0.30
10 0 3 1 o 1.765 2.192 0.00 0.84827 0.37
7 5 1 1 o 0.992 1.422 -148.88 0.84755 0.42
0 0 10 1 o 3.211 4.665 0.00 0.84729 0.11
4 1 9 1 o 0.078 0.112 -5.86 0.84703 0.03
7 4 4 1 o 3.781 4.595 -171.53 0.84553 1.61
7 1 7 1 o 0.179 0.229 90.47 0.84418 0.08
10 1 0 1 o 0.285 0.367 176.09 0.84411 0.06
1 0 10 1 o 2.105 2.856 0.00 0.84347 0.45
8 4 0 1 o 1.266 1.870 -100.08 0.84033 0.28
8 2 5 1 o 0.000 0.000 91.89 0.84206 0.00
10 1 1 1 o 0.227 0.328 -29.04 0.83995 0.10
6 6 2 1 o 2.343 3.068 0.11 0.83881 0.52
8 1 6 1 o 3.954 4.778 -25.03 0.83787 1.76
9 2 3 1 o 4.336 4.952 12.76 0.83692 1.94
8 4 1 1 o 0.506 0.559 -19.57 0.83623 0.23
1 1 10 1 o 7.297 7.984 -93.40 0.83598 1.64
7 5 2 1 o 2.912 3.163 -163.00 0.83511 1.32
6 1 8 1 o 1.074 1.171 -147.97 0.83473 0.49
2 0 10 1 o 0.024 0.024 0.00 0.83231 0.01
5 0 9 1 o 2.039 2.025 0.00 0.83207 0.47
8 3 4 1 o 0.218 0.239 160.59 0.83065 0.10
5 5 6 1 o 2.445 2.695 129.92 0.83053 0.57
5 4 7 1 o 1.596 1.716 -0.86 0.82936 0.75
10 1 2 1 o 0.601 0.586 -110.44 0.82784 0.29
6 4 6 1 o 3.157 2.982 2.74 0.82693 1.51
8 4 2 1 o 2.323 2.168 -161.09 0.82427 1.13
6 3 7 1 o 0.078 0.071 56.34 0.82224 0.04
9 3 0 1 o 14.365 13.086 12.54 0.82218 3.56
2 1 10 1 o 1.696 1.605 -99.17 0.82159 0.85
4 2 9 1 o 0.516 0.495 14.08 0.82135 0.26
8 0 7 1 o 0.005 0.004 0.00 0.81875 0.00
9 3 1 1 o 0.099 0.088 155.13 0.81834 0.05
10 0 4 1 o 0.214 0.202 0.00 0.81999 0.05
4 4 8 1 o 36.806 30.666 -158.43 0.81693 9.57
6 5 5 1 o 0.329 0.274 -31.14 0.81682 0.17
9 1 5 1 o 6.827 5.685 130.16 0.81682 3.56
7 3 6 1 o 0.581 0.490 -53.00 0.81641 0.30
7 5 3 1 o 0.803 0.728 73.08 0.81553 0.42
7 0 8 1 o 0.506 0.506 -180.00 0.81351 0.14
5 3 8 1 o 1.017 1.016 -78.33 0.81351 0.55
3 0 10 1 o 0.200 0.193 180.00 0.81467 0.05
4 0 0 2 o 0.710 0.672 0.00 0.82530 3.16
5 1 9 1 o 1.776 1.876 173.94 0.81104 0.98
10 1 3 1 o 0.212 0.252 125.59 0.80876 0.12
7 2 7 1 o 0.539 0.633 136.92 0.80854 0.31
11 0 0 1 o 0.217 0.254 -180.00 0.80848 0.03
7 4 5 1 o 0.513 0.568 161.06 0.81001 0.29
9 2 4 1 o 0.056 0.064 -160.39 0.80973 0.03
9 0 6 1 o 0.002 0.002 180.00 0.80961 0.00
9 3 2 1 o 3.925 4.289 74.20 0.80712 2.28
