# 1. SUBMISSION DETAILS
_publ_contact_autor
;
        Dirk Walther
        Friedrich-Schiller-Universit\"at Jena
        Institut f\"ur Anorganische und Analytische Chemie
        August-Bebel-Str. 2
        D-07743 Jena
        Germany
;
_publ_contact_author_phone      '03641 9-48110 '
_publ_contact_author_fax        '03641 9-48102 '
_publ_contact_author_email      'cdw@rz.uni-jena.de.de ' 
_publ_requested_journal         'Organometallic '

# 2. TITLE AND AUTHOR LIST

_publ_section_title
;
    Orgnometallic Nickelamacrocycles of Type [(R~2~R'P)Ni(C~2~H~4~COO)]~n~:
    Synthesis and Self-assemply to form Different Molecular Architectures 
    Tuned by the Phosphine
;
loop_
_publ_author_name
_publ_author_address
              ' Walther, Dirk '
;               Friedrich-Schiller-Universit\"at Jena
                Institut f\"ur Anorganische und Analytische Chemie
                August-Bebel-Str. 2
                D-07743 Jena
                Germany
;                   
              ' Fischer, Reinald '
;               Friedrich-Schiller-Universit\"at Jena
                Institut f\"ur Anorganische und Analytische Chemie
                August-Bebel-Str. 2
                D-07743 Jena
                Germany
;                   
              ' Langer, Jens '
;               Friedrich-Schiller-Universit\"at Jena
                Institut f\"ur Anorganische und Analytische Chemie
                August-Bebel-Str. 2
                D-07743 Jena
                Germany
;
               ' G\"orls, Helmar '
;               Friedrich-Schiller-Universit\"at Jena
                Institut f\"ur Anorganische Chemie und Analytische Chemie
                August-Bebel-Str. 2
                07743 Jena
                Germany
;                   
      

#
 
    
data_FO2006 
 
_audit_creation_method            SHELXL-97 
_chemical_name_systematic 
; 
 ? 
; 
_chemical_name_common             ? 
_chemical_melting_point           ? 
_chemical_formula_moiety          ? 
_chemical_formula_sum             'C31 H34 N Ni O4 P' 
_chemical_formula_weight          574.27 
 
loop_ 
 _atom_type_symbol 
 _atom_type_description 
 _atom_type_scat_dispersion_real 
 _atom_type_scat_dispersion_imag 
 _atom_type_scat_source 
 'C'  'C'   0.0033   0.0016 
 'International Tables Vol C Tables 4.2.6.8 and 6.1.1.4' 
 'H'  'H'   0.0000   0.0000 
 'International Tables Vol C Tables 4.2.6.8 and 6.1.1.4' 
 'N'  'N'   0.0061   0.0033 
 'International Tables Vol C Tables 4.2.6.8 and 6.1.1.4' 
 'O'  'O'   0.0106   0.0060 
 'International Tables Vol C Tables 4.2.6.8 and 6.1.1.4' 
 'P'  'P'   0.1023   0.0942 
 'International Tables Vol C Tables 4.2.6.8 and 6.1.1.4' 
 'Ni'  'Ni'   0.3393   1.1124 
 'International Tables Vol C Tables 4.2.6.8 and 6.1.1.4' 
 
_symmetry_cell_setting            triclinic 
_symmetry_space_group_name_H-M    P-1
 
loop_ 
 _symmetry_equiv_pos_as_xyz 
 'x, y, z' 
 '-x, -y, -z' 
 
_cell_length_a                    9.9387(3) 
_cell_length_b                    11.9818(3) 
_cell_length_c                    14.1601(5) 
_cell_angle_alpha                 113.074(1) 
_cell_angle_beta                  90.262(1) 
_cell_angle_gamma                 112.983(1) 
_cell_volume                      1403.25(7) 
_cell_formula_units_Z             2 
_cell_measurement_temperature     183(2) 
_cell_measurement_reflns_used     ? 
_cell_measurement_theta_min       ? 
_cell_measurement_theta_max       ? 
 
_exptl_crystal_description        prism 
_exptl_crystal_colour             green-yellow
_exptl_crystal_size_max           0.03 
_exptl_crystal_size_mid           0.03 
_exptl_crystal_size_min           0.02 
_exptl_crystal_density_meas       ? 
_exptl_crystal_density_diffrn     1.359 
_exptl_crystal_density_method     'not measured' 
_exptl_crystal_F_000              604 
_exptl_absorpt_coefficient_mu     0.785 
_exptl_absorpt_correction_type    NONE
_exptl_absorpt_correction_T_min   ? 
_exptl_absorpt_correction_T_max   ? 
_exptl_absorpt_process_details    ? 
 
_exptl_special_details 
; 
 ? 
; 
 
_diffrn_ambient_temperature       183(2) 
_diffrn_radiation_wavelength      0.71073 
_diffrn_radiation_type            MoK\a 
_diffrn_radiation_source          'fine-focus sealed tube' 
_diffrn_radiation_monochromator   graphite 
_diffrn_measurement_device_type   KappaCCD 
_diffrn_measurement_method        'phi- + omega-scan'
_diffrn_detector_area_resol_mean  ? 
_diffrn_standards_number          ? 
_diffrn_standards_interval_count  ? 
_diffrn_standards_interval_time   ? 
_diffrn_standards_decay_%         ? 
_diffrn_reflns_number             10199 
_diffrn_reflns_av_R_equivalents   0.0424 
_diffrn_reflns_av_sigmaI/netI     0.0830 
_diffrn_reflns_limit_h_min        -12 
_diffrn_reflns_limit_h_max        12 
_diffrn_reflns_limit_k_min        -15 
_diffrn_reflns_limit_k_max        15 
_diffrn_reflns_limit_l_min        -17 
_diffrn_reflns_limit_l_max        18 
_diffrn_reflns_theta_min          1.98 
_diffrn_reflns_theta_max          27.42 
_reflns_number_total              6344 
_reflns_number_gt                 4769 
_reflns_threshold_expression      >2sigma(I) 
 
_computing_data_collection        COLLECT
_computing_cell_refinement        DENZO
_computing_data_reduction         DENZO
_computing_structure_solution     'SHELXS-97 (Sheldrick, 1990)' 
_computing_structure_refinement   'SHELXL-97 (Sheldrick, 1997)' 
_computing_molecular_graphics     SHELXTL/PC
_computing_publication_material   SHELXL-97
 
_refine_special_details 
; 
 Refinement of F^2^ against ALL reflections.  The weighted R-factor wR and 
 goodness of fit S are based on F^2^, conventional R-factors R are based 
 on F, with F set to zero for negative F^2^. The threshold expression of 
 F^2^ > 2sigma(F^2^) is used only for calculating R-factors(gt) etc. and is 
 not relevant to the choice of reflections for refinement.  R-factors based 
 on F^2^ are statistically about twice as large as those based on F, and R- 
 factors based on ALL data will be even larger. 
; 
 
_refine_ls_structure_factor_coef  Fsqd  
_refine_ls_matrix_type            full 
_refine_ls_weighting_scheme       calc  
_refine_ls_weighting_details 
 'calc w=1/[\s^2^(Fo^2^)+(0.0325P)^2^+8.2687P] where P=(Fo^2^+2Fc^2^)/3' 
_atom_sites_solution_primary      direct 
_atom_sites_solution_secondary    difmap 
_atom_sites_solution_hydrogens    geom 
_refine_ls_hydrogen_treatment     mixed 
_refine_ls_extinction_method      none 
_refine_ls_extinction_coef        ? 
_refine_ls_number_reflns          6344 
_refine_ls_number_parameters      343 
_refine_ls_number_restraints      0 
_refine_ls_R_factor_all           0.1047 
_refine_ls_R_factor_gt            0.0752 
_refine_ls_wR_factor_ref          0.1848 
_refine_ls_wR_factor_gt           0.1714 
_refine_ls_goodness_of_fit_ref    1.094 
_refine_ls_restrained_S_all       1.094 
_refine_ls_shift/su_max           0.016 
_refine_ls_shift/su_mean          0.001 
 
loop_ 
 _atom_site_label 
 _atom_site_type_symbol 
 _atom_site_fract_x 
 _atom_site_fract_y 
 _atom_site_fract_z 
 _atom_site_U_iso_or_equiv 
 _atom_site_adp_type 
 _atom_site_occupancy 
 _atom_site_symmetry_multiplicity 
 _atom_site_calc_flag 
 _atom_site_refinement_flags 
 _atom_site_disorder_assembly 
 _atom_site_disorder_group 
Ni Ni 0.72560(7) 0.60943(6) 0.28572(5) 0.01747(17) Uani 1 1 d . . . 
P P 0.71225(14) 0.41251(12) 0.23813(10) 0.0191(3) Uani 1 1 d . . . 
O1 O 0.7083(4) 0.7741(3) 0.3316(3) 0.0231(7) Uani 1 1 d . . . 
O2 O 0.5464(4) 0.8631(3) 0.3410(3) 0.0254(8) Uani 1 1 d . . . 
O3 O 0.7873(4) 0.4588(4) 0.0562(3) 0.0323(9) Uani 1 1 d . . . 
N N 0.9362(5) 0.7150(4) 0.3482(3) 0.0225(9) Uani 1 1 d . . . 
C1 C 0.5198(5) 0.5274(5) 0.2169(4) 0.0208(10) Uani 1 1 d . . . 
H1A H 0.5134 0.5179 0.1442 0.025 Uiso 1 1 calc R . . 
H1B H 0.4662 0.4377 0.2159 0.025 Uiso 1 1 calc R . . 
C2 C 0.4549(5) 0.6223(5) 0.2814(4) 0.0201(10) Uani 1 1 d . . . 
H2A H 0.3677 0.6106 0.2381 0.024 Uiso 1 1 calc R . . 
H2B H 0.4220 0.6028 0.3413 0.024 Uiso 1 1 calc R . . 
C3 C 0.5746(5) 0.7652(5) 0.3204(4) 0.0193(10) Uani 1 1 d . . . 
C4 C 1.0440(6) 0.7074(5) 0.2925(4) 0.0244(11) Uani 1 1 d . . . 
H4A H 1.0160 0.6445 0.2212 0.029 Uiso 1 1 calc R . . 
C5 C 1.1940(6) 0.7869(5) 0.3341(5) 0.0290(12) Uani 1 1 d . . . 
H5A H 1.2669 0.7789 0.2919 0.035 Uiso 1 1 calc R . . 
C6 C 1.2356(6) 0.8777(5) 0.4375(5) 0.0295(12) Uani 1 1 d . . . 
H6A H 1.3378 0.9318 0.4683 0.035 Uiso 1 1 calc R . . 
C7 C 1.1264(6) 0.8895(6) 0.4964(4) 0.0328(12) Uani 1 1 d . . . 
H7A H 1.1522 0.9523 0.5677 0.039 Uiso 1 1 calc R . . 
C8 C 0.9786(6) 0.8071(5) 0.4485(4) 0.0293(12) Uani 1 1 d . . . 
H8A H 0.9036 0.8161 0.4883 0.035 Uiso 1 1 calc R . . 
C9 C 0.6185(6) 0.2997(5) 0.1037(4) 0.0221(10) Uani 1 1 d . . . 
C10 C 0.4941(6) 0.1770(5) 0.0755(4) 0.0279(11) Uani 1 1 d . . . 
H10A H 0.4606 0.1474 0.1279 0.033 Uiso 1 1 calc R . . 
C11 C 0.4189(7) 0.0978(6) -0.0271(5) 0.0368(14) Uani 1 1 d . . . 
H11A H 0.3341 0.0154 -0.0448 0.044 Uiso 1 1 calc R . . 
C12 C 0.4688(8) 0.1404(6) -0.1034(5) 0.0386(14) Uani 1 1 d . . . 
H12A H 0.4188 0.0858 -0.1739 0.046 Uiso 1 1 calc R . . 
C13 C 0.5903(7) 0.2609(6) -0.0786(4) 0.0334(13) Uani 1 1 d . . . 
H13A H 0.6224 0.2898 -0.1316 0.040 Uiso 1 1 calc R . . 
C14 C 0.6660(6) 0.3404(5) 0.0248(4) 0.0255(11) Uani 1 1 d . . . 
C15 C 0.8320(8) 0.5111(7) -0.0192(5) 0.0457(16) Uani 1 1 d . . . 
H15A H 0.9203 0.5969 0.0135 0.069 Uiso 1 1 calc R . . 
H15B H 0.7510 0.5248 -0.0454 0.069 Uiso 1 1 calc R . . 
H15C H 0.8552 0.4475 -0.0774 0.069 Uiso 1 1 calc R . . 
C16 C 0.8843(6) 0.3915(5) 0.2480(4) 0.0247(11) Uani 1 1 d . . . 
C17 C 0.9253(6) 0.3139(5) 0.1611(4) 0.0277(11) Uani 1 1 d . . . 
H17A H 0.8653 0.2718 0.0938 0.033 Uiso 1 1 calc R . . 
C18 C 1.0561(6) 0.2990(6) 0.1746(5) 0.0339(13) Uani 1 1 d . . . 
H18A H 1.0859 0.2475 0.1159 0.041 Uiso 1 1 calc R . . 
C19 C 1.1417(6) 0.3585(6) 0.2725(6) 0.0386(15) Uani 1 1 d . . . 
H19A H 1.2288 0.3460 0.2811 0.046 Uiso 1 1 calc R . . 
C20 C 1.1020(6) 0.4363(6) 0.3583(5) 0.0364(14) Uani 1 1 d . . . 
H20A H 1.1625 0.4777 0.4254 0.044 Uiso 1 1 calc R . . 
C21 C 0.9743(6) 0.4542(6) 0.3470(5) 0.0325(12) Uani 1 1 d . . . 
H21A H 0.9478 0.5087 0.4060 0.039 Uiso 1 1 calc R . . 
C22 C 0.6077(5) 0.3264(5) 0.3141(4) 0.0208(10) Uani 1 1 d . . . 
C23 C 0.5129(6) 0.3731(5) 0.3731(4) 0.0223(10) Uani 1 1 d . . . 
H23A H 0.5061 0.4510 0.3755 0.027 Uiso 1 1 calc R . . 
C24 C 0.4285(6) 0.3057(5) 0.4283(4) 0.0274(11) Uani 1 1 d . . . 
H24A H 0.3642 0.3378 0.4684 0.033 Uiso 1 1 calc R . . 
C25 C 0.4380(6) 0.1927(5) 0.4250(4) 0.0298(12) Uani 1 1 d . . . 
H25A H 0.3784 0.1460 0.4615 0.036 Uiso 1 1 calc R . . 
C26 C 0.5339(6) 0.1463(5) 0.3686(4) 0.0293(12) Uani 1 1 d . . . 
H26A H 0.5426 0.0700 0.3684 0.035 Uiso 1 1 calc R . . 
C27 C 0.6167(6) 0.2119(5) 0.3128(4) 0.0277(11) Uani 1 1 d . . . 
H27A H 0.6806 0.1789 0.2729 0.033 Uiso 1 1 calc R . . 
O4 O 1.0290(7) 0.8430(7) 0.0972(5) 0.086(2) Uani 1 1 d . . . 
C28 C 0.8923(13) 0.8381(12) 0.1211(8) 0.122(5) Uani 1 1 d . . . 
H28A H 0.8442 0.7648 0.1429 0.146 Uiso 1 1 calc R . . 
H28B H 0.8272 0.8181 0.0580 0.146 Uiso 1 1 calc R . . 
C29 C 0.9082(9) 0.9689(8) 0.2076(6) 0.0552(19) Uani 1 1 d . . . 
H29A H 0.8348 0.9552 0.2537 0.066 Uiso 1 1 calc R . . 
H29B H 0.9011 1.0313 0.1803 0.066 Uiso 1 1 calc R . . 
C30 C 1.0619(8) 1.0143(7) 0.2604(7) 0.0544(19) Uani 1 1 d . . . 
H30A H 1.0609 0.9723 0.3084 0.065 Uiso 1 1 calc R . . 
H30B H 1.1100 1.1130 0.3008 0.065 Uiso 1 1 calc R . . 
C31 C 1.1425(9) 0.9703(10) 0.1736(7) 0.076(3) Uani 1 1 d . . . 
H31A H 1.1804 1.0363 0.1436 0.092 Uiso 1 1 calc R . . 
H31B H 1.2268 0.9583 0.1987 0.092 Uiso 1 1 calc R . . 
 
loop_ 
 _atom_site_aniso_label 
 _atom_site_aniso_U_11 
 _atom_site_aniso_U_22 
 _atom_site_aniso_U_33 
 _atom_site_aniso_U_23 
 _atom_site_aniso_U_13 
 _atom_site_aniso_U_12 
Ni 0.0150(3) 0.0158(3) 0.0204(3) 0.0064(2) 0.0020(2) 0.0067(2) 
P 0.0194(6) 0.0176(6) 0.0194(6) 0.0067(5) 0.0023(5) 0.0083(5) 
O1 0.0156(17) 0.0178(17) 0.035(2) 0.0096(15) 0.0040(15) 0.0073(14) 
O2 0.0269(19) 0.0190(17) 0.029(2) 0.0064(15) 0.0020(15) 0.0122(15) 
O3 0.036(2) 0.033(2) 0.026(2) 0.0152(17) 0.0054(17) 0.0110(18) 
N 0.019(2) 0.021(2) 0.026(2) 0.0074(18) 0.0054(17) 0.0085(17) 
C1 0.018(2) 0.021(2) 0.023(2) 0.008(2) 0.0021(19) 0.009(2) 
C2 0.015(2) 0.018(2) 0.024(2) 0.008(2) 0.0011(19) 0.0051(19) 
C3 0.022(2) 0.018(2) 0.018(2) 0.0078(19) 0.0034(19) 0.009(2) 
C4 0.023(3) 0.020(2) 0.028(3) 0.007(2) 0.005(2) 0.011(2) 
C5 0.021(3) 0.025(3) 0.043(3) 0.014(3) 0.009(2) 0.012(2) 
C6 0.016(2) 0.029(3) 0.045(3) 0.022(3) 0.002(2) 0.005(2) 
C7 0.028(3) 0.031(3) 0.028(3) 0.005(2) -0.002(2) 0.008(2) 
C8 0.024(3) 0.025(3) 0.029(3) 0.005(2) 0.004(2) 0.008(2) 
C9 0.026(3) 0.022(2) 0.021(2) 0.007(2) 0.002(2) 0.015(2) 
C10 0.036(3) 0.017(2) 0.026(3) 0.007(2) -0.002(2) 0.010(2) 
C11 0.045(4) 0.021(3) 0.031(3) 0.005(2) -0.008(3) 0.008(3) 
C12 0.057(4) 0.028(3) 0.025(3) 0.004(2) -0.002(3) 0.021(3) 
C13 0.046(3) 0.035(3) 0.021(3) 0.010(2) 0.005(2) 0.021(3) 
C14 0.034(3) 0.025(3) 0.020(2) 0.009(2) 0.006(2) 0.016(2) 
C15 0.045(4) 0.052(4) 0.038(4) 0.027(3) 0.007(3) 0.011(3) 
C16 0.025(3) 0.023(2) 0.033(3) 0.015(2) 0.008(2) 0.013(2) 
C17 0.029(3) 0.028(3) 0.032(3) 0.015(2) 0.008(2) 0.015(2) 
C18 0.032(3) 0.034(3) 0.048(4) 0.022(3) 0.021(3) 0.021(3) 
C19 0.020(3) 0.046(3) 0.071(5) 0.043(4) 0.014(3) 0.016(3) 
C20 0.027(3) 0.047(4) 0.043(3) 0.027(3) 0.002(3) 0.015(3) 
C21 0.024(3) 0.039(3) 0.037(3) 0.017(3) 0.002(2) 0.015(2) 
C22 0.023(2) 0.017(2) 0.020(2) 0.007(2) 0.0010(19) 0.0064(19) 
C23 0.026(3) 0.017(2) 0.019(2) 0.005(2) 0.002(2) 0.007(2) 
C24 0.034(3) 0.023(3) 0.020(3) 0.007(2) 0.005(2) 0.009(2) 
C25 0.038(3) 0.027(3) 0.023(3) 0.013(2) 0.008(2) 0.011(2) 
C26 0.042(3) 0.025(3) 0.026(3) 0.014(2) 0.002(2) 0.017(2) 
C27 0.037(3) 0.023(3) 0.024(3) 0.006(2) 0.005(2) 0.016(2) 
O4 0.053(4) 0.091(5) 0.052(3) -0.006(3) 0.012(3) 0.009(3) 
C28 0.098(9) 0.111(9) 0.057(6) -0.024(6) 0.032(6) 0.009(7) 
C29 0.059(5) 0.050(4) 0.047(4) 0.020(4) 0.004(4) 0.015(4) 
C30 0.053(4) 0.039(4) 0.069(5) 0.025(4) 0.008(4) 0.016(3) 
C31 0.042(4) 0.093(7) 0.066(6) 0.035(5) -0.003(4) 0.002(4) 
 
_geom_special_details 
; 
 All esds (except the esd in the dihedral angle between two l.s. planes) 
 are estimated using the full covariance matrix.  The cell esds are taken 
 into account individually in the estimation of esds in distances, angles 
 and torsion angles; correlations between esds in cell parameters are only 
 used when they are defined by crystal symmetry.  An approximate (isotropic) 
 treatment of cell esds is used for estimating esds involving l.s. planes. 
; 
 
loop_ 
 _geom_bond_atom_site_label_1 
 _geom_bond_atom_site_label_2 
 _geom_bond_distance 
 _geom_bond_site_symmetry_2 
 _geom_bond_publ_flag 
Ni O1 1.899(3) . ? 
Ni C1 1.939(5) . ? 
Ni N 1.950(4) . ? 
Ni P 2.1323(13) . ? 
P C9 1.817(5) . ? 
P C22 1.829(5) . ? 
P C16 1.836(5) . ? 
O1 C3 1.295(6) . ? 
O2 C3 1.236(6) . ? 
O3 C14 1.352(6) . ? 
O3 C15 1.429(7) . ? 
N C8 1.347(7) . ? 
N C4 1.344(6) . ? 
C1 C2 1.518(7) . ? 
C2 C3 1.522(6) . ? 
C4 C5 1.386(7) . ? 
C5 C6 1.377(8) . ? 
C6 C7 1.389(8) . ? 
C7 C8 1.388(7) . ? 
C9 C10 1.402(7) . ? 
C9 C14 1.401(7) . ? 
C10 C11 1.389(8) . ? 
C11 C12 1.382(9) . ? 
C12 C13 1.380(9) . ? 
C13 C14 1.397(7) . ? 
C16 C17 1.396(7) . ? 
C16 C21 1.402(8) . ? 
C17 C18 1.402(7) . ? 
C18 C19 1.376(9) . ? 
C19 C20 1.379(9) . ? 
C20 C21 1.386(8) . ? 
C22 C23 1.397(7) . ? 
C22 C27 1.402(7) . ? 
C23 C24 1.392(7) . ? 
C24 C25 1.377(7) . ? 
C25 C26 1.389(8) . ? 
C26 C27 1.380(8) . ? 
O4 C28 1.387(12) . ? 
O4 C31 1.456(10) . ? 
C28 C29 1.510(12) . ? 
C29 C30 1.487(10) . ? 
C30 C31 1.504(12) . ? 
 
loop_ 
 _geom_angle_atom_site_label_1 
 _geom_angle_atom_site_label_2 
 _geom_angle_atom_site_label_3 
 _geom_angle 
 _geom_angle_site_symmetry_1 
 _geom_angle_site_symmetry_3 
 _geom_angle_publ_flag 
O1 Ni C1 85.35(17) . . ? 
O1 Ni N 87.35(16) . . ? 
C1 Ni N 170.71(19) . . ? 
O1 Ni P 171.50(11) . . ? 
C1 Ni P 88.00(15) . . ? 
N Ni P 99.77(13) . . ? 
C9 P C22 104.2(2) . . ? 
C9 P C16 104.0(2) . . ? 
C22 P C16 100.7(2) . . ? 
C9 P Ni 113.53(16) . . ? 
C22 P Ni 113.54(16) . . ? 
C16 P Ni 119.10(17) . . ? 
C3 O1 Ni 116.2(3) . . ? 
C14 O3 C15 117.7(4) . . ? 
C8 N C4 117.3(4) . . ? 
C8 N Ni 120.2(3) . . ? 
C4 N Ni 122.3(4) . . ? 
C2 C1 Ni 105.1(3) . . ? 
C3 C2 C1 108.3(4) . . ? 
O2 C3 O1 123.6(4) . . ? 
O2 C3 C2 123.2(4) . . ? 
O1 C3 C2 113.2(4) . . ? 
N C4 C5 123.2(5) . . ? 
C6 C5 C4 118.8(5) . . ? 
C5 C6 C7 119.3(5) . . ? 
C8 C7 C6 118.3(5) . . ? 
N C8 C7 123.2(5) . . ? 
C10 C9 C14 118.0(5) . . ? 
C10 C9 P 123.1(4) . . ? 
C14 C9 P 118.8(4) . . ? 
C11 C10 C9 121.5(5) . . ? 
C12 C11 C10 119.2(6) . . ? 
C13 C12 C11 121.0(5) . . ? 
C12 C13 C14 119.7(5) . . ? 
O3 C14 C13 123.9(5) . . ? 
O3 C14 C9 115.4(4) . . ? 
C13 C14 C9 120.6(5) . . ? 
C17 C16 C21 120.0(5) . . ? 
C17 C16 P 122.0(4) . . ? 
C21 C16 P 118.0(4) . . ? 
C16 C17 C18 119.1(5) . . ? 
C19 C18 C17 120.4(5) . . ? 
C20 C19 C18 120.6(5) . . ? 
C19 C20 C21 120.3(6) . . ? 
C20 C21 C16 119.7(6) . . ? 
C23 C22 C27 118.6(5) . . ? 
C23 C22 P 119.5(4) . . ? 
C27 C22 P 121.9(4) . . ? 
C22 C23 C24 120.2(5) . . ? 
C25 C24 C23 120.2(5) . . ? 
C24 C25 C26 120.5(5) . . ? 
C25 C26 C27 119.5(5) . . ? 
C26 C27 C22 121.0(5) . . ? 
C28 O4 C31 107.1(7) . . ? 
O4 C28 C29 111.6(8) . . ? 
C28 C29 C30 98.0(8) . . ? 
C29 C30 C31 105.1(7) . . ? 
O4 C31 C30 103.6(6) . . ? 
 
_diffrn_measured_fraction_theta_max    0.992 
_diffrn_reflns_theta_full              27.42 
_diffrn_measured_fraction_theta_full   0.992 
_refine_diff_density_max    1.365 
_refine_diff_density_min   -0.714 
_refine_diff_density_rms    0.116 
 

#==== END

data_FO2152
 
_audit_creation_method            SHELXL-97 
_chemical_name_systematic 
; 
 ? 
; 
_chemical_name_common             ? 
_chemical_melting_point           ? 
_chemical_formula_moiety          ? 
_chemical_formula_sum             'C68 H76 Ni4 O8 P4' 
_chemical_formula_weight          1380.01 
 
loop_ 
 _atom_type_symbol 
 _atom_type_description 
 _atom_type_scat_dispersion_real 
 _atom_type_scat_dispersion_imag 
 _atom_type_scat_source 
 'C'  'C'   0.0033   0.0016 
 'International Tables Vol C Tables 4.2.6.8 and 6.1.1.4' 
 'H'  'H'   0.0000   0.0000 
 'International Tables Vol C Tables 4.2.6.8 and 6.1.1.4' 
 'O'  'O'   0.0106   0.0060 
 'International Tables Vol C Tables 4.2.6.8 and 6.1.1.4' 
 'P'  'P'   0.1023   0.0942 
 'International Tables Vol C Tables 4.2.6.8 and 6.1.1.4' 
 'Ni'  'Ni'   0.3393   1.1124 
 'International Tables Vol C Tables 4.2.6.8 and 6.1.1.4' 
 
_symmetry_cell_setting            tetragonalic 
_symmetry_space_group_name_H-M    I-4 
 
loop_ 
 _symmetry_equiv_pos_as_xyz 
 'x, y, z' 
 '-x, -y, z' 
 'y, -x, -z' 
 '-y, x, -z' 
 'x+1/2, y+1/2, z+1/2' 
 '-x+1/2, -y+1/2, z+1/2' 
 'y+1/2, -x+1/2, -z+1/2' 
 '-y+1/2, x+1/2, -z+1/2' 
 
_cell_length_a                    17.3790(12) 
_cell_length_b                    17.3790(12) 
_cell_length_c                    10.6941(6) 
_cell_angle_alpha                 90.00 
_cell_angle_beta                  90.00 
_cell_angle_gamma                 90.00 
_cell_volume                      3229.9(4) 
_cell_formula_units_Z             2 
_cell_measurement_temperature     183(2) 
_cell_measurement_reflns_used     ? 
_cell_measurement_theta_min       ? 
_cell_measurement_theta_max       ? 
 
_exptl_crystal_description        prism 
_exptl_crystal_colour             yellow-orange
_exptl_crystal_size_max           0.03 
_exptl_crystal_size_mid           0.03 
_exptl_crystal_size_min           0.02 
_exptl_crystal_density_meas       ? 
_exptl_crystal_density_diffrn     1.419 
_exptl_crystal_density_method     'not measured' 
_exptl_crystal_F_000              1440 
_exptl_absorpt_coefficient_mu     1.301 
_exptl_absorpt_correction_type    NONE 
_exptl_absorpt_correction_T_min   ? 
_exptl_absorpt_correction_T_max   ? 
_exptl_absorpt_process_details    ? 
 
_exptl_special_details 
; 
 ? 
; 
 
_diffrn_ambient_temperature       183(2) 
_diffrn_radiation_wavelength      0.71073 
_diffrn_radiation_type            MoK\a 
_diffrn_radiation_source          'fine-focus sealed tube' 
_diffrn_radiation_monochromator   graphite 
_diffrn_measurement_device_type   KappaCCD 
_diffrn_measurement_method        'phi- + omega-scan'
_diffrn_detector_area_resol_mean  ? 
_diffrn_standards_number          ? 
_diffrn_standards_interval_count  ? 
_diffrn_standards_interval_time   ? 
_diffrn_standards_decay_%         ? 
_diffrn_reflns_number             6056 
_diffrn_reflns_av_R_equivalents   0.0463 
_diffrn_reflns_av_sigmaI/netI     0.0830 
_diffrn_reflns_limit_h_min        -17 
_diffrn_reflns_limit_h_max        22 
_diffrn_reflns_limit_k_min        -21 
_diffrn_reflns_limit_k_max        17 
_diffrn_reflns_limit_l_min        -13 
_diffrn_reflns_limit_l_max        13 
_diffrn_reflns_theta_min          2.24 
_diffrn_reflns_theta_max          27.47 
_reflns_number_total              3507 
_reflns_number_gt                 2782 
_reflns_threshold_expression      >2sigma(I) 
 
_computing_data_collection        COLLECT 
_computing_cell_refinement        DENZO
_computing_data_reduction         DENZO
_computing_structure_solution     'SHELXS-97 (Sheldrick, 1990)' 
_computing_structure_refinement   'SHELXL-97 (Sheldrick, 1997)' 
_computing_molecular_graphics     SHELXTL/PC
_computing_publication_material   SHELXL-97
 
_refine_special_details 
; 
 Refinement of F^2^ against ALL reflections.  The weighted R-factor wR and 
 goodness of fit S are based on F^2^, conventional R-factors R are based 
 on F, with F set to zero for negative F^2^. The threshold expression of 
 F^2^ > 2sigma(F^2^) is used only for calculating R-factors(gt) etc. and is 
 not relevant to the choice of reflections for refinement.  R-factors based 
 on F^2^ are statistically about twice as large as those based on F, and R- 
 factors based on ALL data will be even larger. 
; 
 
_refine_ls_structure_factor_coef  Fsqd  
_refine_ls_matrix_type            full 
_refine_ls_weighting_scheme       calc  
_refine_ls_weighting_details 
 'calc w=1/[\s^2^(Fo^2^)+(0.0275P)^2^+0.0000P] where P=(Fo^2^+2Fc^2^)/3' 
_atom_sites_solution_primary      direct 
_atom_sites_solution_secondary    difmap 
_atom_sites_solution_hydrogens    geom 
_refine_ls_hydrogen_treatment     mixed 
_refine_ls_extinction_method      none 
_refine_ls_extinction_coef        ? 
_refine_ls_abs_structure_details 
 'Flack H D (1983), Acta Cryst. A39, 876-881' 
_refine_ls_abs_structure_Flack    -0.025(17) 
_refine_ls_number_reflns          3507 
_refine_ls_number_parameters      190 
_refine_ls_number_restraints      0 
_refine_ls_R_factor_all           0.0682 
_refine_ls_R_factor_gt            0.0439 
_refine_ls_wR_factor_ref          0.0857 
_refine_ls_wR_factor_gt           0.0772 
_refine_ls_goodness_of_fit_ref    1.015 
_refine_ls_restrained_S_all       1.015 
_refine_ls_shift/su_max           0.001 
_refine_ls_shift/su_mean          0.000 
 
loop_ 
 _atom_site_label 
 _atom_site_type_symbol 
 _atom_site_fract_x 
 _atom_site_fract_y 
 _atom_site_fract_z 
 _atom_site_U_iso_or_equiv 
 _atom_site_adp_type 
 _atom_site_occupancy 
 _atom_site_symmetry_multiplicity 
 _atom_site_calc_flag 
 _atom_site_refinement_flags 
 _atom_site_disorder_assembly 
 _atom_site_disorder_group 
Ni Ni 0.43917(3) 0.35431(3) 0.12157(4) 0.02365(13) Uani 1 1 d . . . 
P1 P 0.34557(6) 0.30555(6) 0.22167(9) 0.0263(2) Uani 1 1 d . . . 
O1 O 0.52930(15) 0.38220(16) 0.0336(2) 0.0281(6) Uani 1 1 d . . . 
O2 O 0.65646(15) 0.39169(15) 0.0457(2) 0.0286(6) Uani 1 1 d . . . 
C1 C 0.4988(2) 0.3719(3) 0.2692(3) 0.0368(11) Uani 1 1 d . . . 
H1A H 0.4866 0.4230 0.3047 0.044 Uiso 1 1 calc R . . 
H1B H 0.4870 0.3323 0.3328 0.044 Uiso 1 1 calc R . . 
C2 C 0.5832(2) 0.3680(3) 0.2330(4) 0.0338(10) Uani 1 1 d . . . 
H2A H 0.6126 0.4072 0.2802 0.041 Uiso 1 1 calc R . . 
H2B H 0.6042 0.3166 0.2543 0.041 Uiso 1 1 calc R . . 
C3 C 0.5915(2) 0.3821(2) 0.0958(3) 0.0238(8) Uani 1 1 d . . . 
C4 C 0.3382(3) 0.3144(3) 0.3920(4) 0.0402(10) Uani 1 1 d . . . 
H4A H 0.2932 0.2847 0.4220 0.048 Uiso 1 1 calc R . . 
H4B H 0.3849 0.2926 0.4315 0.048 Uiso 1 1 calc R . . 
C5 C 0.3293(3) 0.3990(3) 0.4306(4) 0.0507(13) Uani 1 1 d . . . 
H5A H 0.3256 0.4025 0.5218 0.076 Uiso 1 1 calc R . . 
H5B H 0.2826 0.4203 0.3927 0.076 Uiso 1 1 calc R . . 
H5C H 0.3742 0.4282 0.4018 0.076 Uiso 1 1 calc R . . 
C6 C 0.2486(2) 0.3366(2) 0.1782(4) 0.0279(9) Uani 1 1 d . . . 
C7 C 0.1847(2) 0.2912(3) 0.2060(4) 0.0387(11) Uani 1 1 d . . . 
H7A H 0.1921 0.2409 0.2388 0.046 Uiso 1 1 calc R . . 
C8 C 0.1110(3) 0.3182(3) 0.1864(5) 0.0504(13) Uani 1 1 d . . . 
H8A H 0.0680 0.2867 0.2056 0.061 Uiso 1 1 calc R . . 
C9 C 0.1000(3) 0.3911(3) 0.1389(5) 0.0517(13) Uani 1 1 d . . . 
H9A H 0.0493 0.4098 0.1255 0.062 Uiso 1 1 calc R . . 
C10 C 0.1622(3) 0.4370(3) 0.1109(5) 0.0447(12) Uani 1 1 d . . . 
H10A H 0.1543 0.4873 0.0785 0.054 Uiso 1 1 calc R . . 
C11 C 0.2370(2) 0.4098(2) 0.1299(4) 0.0338(9) Uani 1 1 d . . . 
H11A H 0.2798 0.4414 0.1097 0.041 Uiso 1 1 calc R . . 
C12 C 0.3458(2) 0.2022(2) 0.1926(4) 0.0281(9) Uani 1 1 d . . . 
C13 C 0.3400(3) 0.1460(3) 0.2849(4) 0.0421(11) Uani 1 1 d . . . 
H13A H 0.3320 0.1606 0.3695 0.051 Uiso 1 1 calc R . . 
C14 C 0.3460(3) 0.0682(3) 0.2535(6) 0.0543(15) Uani 1 1 d . . . 
H14A H 0.3434 0.0302 0.3171 0.065 Uiso 1 1 calc R . . 
C15 C 0.3556(3) 0.0466(3) 0.1324(6) 0.0515(15) Uani 1 1 d . . . 
H15A H 0.3583 -0.0065 0.1121 0.062 Uiso 1 1 calc R . . 
C16 C 0.3615(3) 0.1005(3) 0.0390(5) 0.0457(12) Uani 1 1 d . . . 
H16A H 0.3689 0.0848 -0.0453 0.055 Uiso 1 1 calc R . . 
C17 C 0.3566(3) 0.1776(2) 0.0684(4) 0.0363(11) Uani 1 1 d . . . 
H17A H 0.3605 0.2148 0.0036 0.044 Uiso 1 1 calc R . . 
 
loop_ 
 _atom_site_aniso_label 
 _atom_site_aniso_U_11 
 _atom_site_aniso_U_22 
 _atom_site_aniso_U_33 
 _atom_site_aniso_U_23 
 _atom_site_aniso_U_13 
 _atom_site_aniso_U_12 
Ni 0.0259(3) 0.0255(3) 0.0196(2) 0.0021(2) -0.0012(2) -0.0011(2) 
P1 0.0266(6) 0.0301(6) 0.0223(5) 0.0017(5) -0.0013(4) -0.0032(4) 
O1 0.0264(15) 0.0371(17) 0.0208(12) 0.0019(12) 0.0005(12) -0.0008(12) 
O2 0.0241(15) 0.0372(17) 0.0246(13) 0.0048(12) 0.0016(12) 0.0036(13) 
C1 0.028(2) 0.059(3) 0.0237(19) 0.001(2) 0.0036(18) -0.007(2) 
C2 0.030(2) 0.046(3) 0.025(2) 0.009(2) -0.0030(18) 0.0016(19) 
C3 0.027(2) 0.020(2) 0.024(2) 0.0011(16) 0.0009(17) -0.0011(16) 
C4 0.039(2) 0.053(3) 0.029(2) 0.004(2) -0.001(2) -0.006(2) 
C5 0.049(3) 0.072(4) 0.031(2) -0.020(2) 0.008(2) -0.006(3) 
C6 0.028(2) 0.031(2) 0.0244(18) -0.0087(17) -0.0013(17) -0.0008(18) 
C7 0.032(2) 0.030(2) 0.054(3) -0.009(2) 0.004(2) -0.0035(19) 
C8 0.029(3) 0.051(3) 0.072(3) -0.025(3) 0.006(2) -0.003(2) 
C9 0.028(3) 0.066(3) 0.061(3) -0.019(3) -0.001(3) 0.009(2) 
C10 0.045(3) 0.051(3) 0.038(3) -0.002(3) -0.002(2) 0.014(2) 
C11 0.035(2) 0.038(2) 0.0275(19) -0.002(2) 0.001(2) 0.0013(18) 
C12 0.025(2) 0.027(2) 0.032(2) 0.0069(18) -0.0005(18) -0.0057(17) 
C13 0.045(3) 0.038(3) 0.044(3) 0.017(2) -0.003(2) -0.001(2) 
C14 0.057(3) 0.032(3) 0.074(4) 0.019(3) -0.004(3) -0.002(2) 
C15 0.053(3) 0.032(3) 0.070(4) 0.002(3) -0.006(3) -0.006(2) 
C16 0.042(3) 0.038(3) 0.057(3) -0.004(3) 0.007(2) -0.004(2) 
C17 0.037(3) 0.024(2) 0.048(3) 0.003(2) 0.004(2) -0.005(2) 
 
_geom_special_details 
; 
 All esds (except the esd in the dihedral angle between two l.s. planes) 
 are estimated using the full covariance matrix.  The cell esds are taken 
 into account individually in the estimation of esds in distances, angles 
 and torsion angles; correlations between esds in cell parameters are only 
 used when they are defined by crystal symmetry.  An approximate (isotropic) 
 treatment of cell esds is used for estimating esds involving l.s. planes. 
; 
 
loop_ 
 _geom_bond_atom_site_label_1 
 _geom_bond_atom_site_label_2 
 _geom_bond_distance 
 _geom_bond_site_symmetry_2 
 _geom_bond_publ_flag 
Ni O1 1.891(3) . ? 
Ni C1 1.912(4) . ? 
Ni O2 1.979(3) 3_565 ? 
Ni P1 2.1237(11) . ? 
P1 C12 1.823(4) . ? 
P1 C6 1.830(4) . ? 
P1 C4 1.833(4) . ? 
O1 C3 1.269(4) . ? 
O2 C3 1.261(4) . ? 
O2 Ni 1.979(3) 4_655 ? 
C1 C2 1.519(5) . ? 
C2 C3 1.495(5) . ? 
C4 C5 1.535(6) . ? 
C6 C7 1.394(6) . ? 
C6 C11 1.387(6) . ? 
C7 C8 1.381(6) . ? 
C8 C9 1.379(7) . ? 
C9 C10 1.375(7) . ? 
C10 C11 1.398(6) . ? 
C12 C13 1.392(5) . ? 
C12 C17 1.408(6) . ? 
C13 C14 1.398(7) . ? 
C14 C15 1.358(8) . ? 
C15 C16 1.374(7) . ? 
C16 C17 1.379(6) . ? 
 
loop_ 
 _geom_angle_atom_site_label_1 
 _geom_angle_atom_site_label_2 
 _geom_angle_atom_site_label_3 
 _geom_angle 
 _geom_angle_site_symmetry_1 
 _geom_angle_site_symmetry_3 
 _geom_angle_publ_flag 
O1 Ni C1 85.48(15) . . ? 
O1 Ni O2 85.39(11) . 3_565 ? 
C1 Ni O2 170.75(15) . 3_565 ? 
O1 Ni P1 171.06(9) . . ? 
C1 Ni P1 93.59(12) . . ? 
O2 Ni P1 95.66(8) 3_565 . ? 
C12 P1 C6 104.45(18) . . ? 
C12 P1 C4 104.6(2) . . ? 
C6 P1 C4 99.38(19) . . ? 
C12 P1 Ni 107.79(13) . . ? 
C6 P1 Ni 117.37(14) . . ? 
C4 P1 Ni 121.44(15) . . ? 
C3 O1 Ni 116.4(2) . . ? 
C3 O2 Ni 110.8(2) . 4_655 ? 
C2 C1 Ni 107.8(3) . . ? 
C3 C2 C1 109.6(3) . . ? 
O2 C3 O1 122.7(3) . . ? 
O2 C3 C2 121.6(3) . . ? 
O1 C3 C2 115.7(3) . . ? 
C5 C4 P1 110.7(3) . . ? 
C7 C6 C11 118.9(4) . . ? 
C7 C6 P1 120.8(3) . . ? 
C11 C6 P1 119.9(3) . . ? 
C8 C7 C6 120.9(4) . . ? 
C7 C8 C9 119.8(4) . . ? 
C10 C9 C8 120.3(4) . . ? 
C9 C10 C11 120.2(5) . . ? 
C6 C11 C10 119.9(4) . . ? 
C13 C12 C17 117.8(4) . . ? 
C13 C12 P1 124.7(3) . . ? 
C17 C12 P1 117.4(3) . . ? 
C12 C13 C14 120.2(5) . . ? 
C15 C14 C13 120.4(5) . . ? 
C14 C15 C16 121.0(5) . . ? 
C17 C16 C15 119.5(5) . . ? 
C16 C17 C12 121.2(4) . . ? 
 
_diffrn_measured_fraction_theta_max    0.998 
_diffrn_reflns_theta_full              27.47 
_diffrn_measured_fraction_theta_full   0.998 
_refine_diff_density_max    0.277 
_refine_diff_density_min   -0.287 
_refine_diff_density_rms    0.069 
 

#===== END

data_FO1864 
 
_audit_creation_method            SHELXL-97 
_chemical_name_systematic 
; 
 ? 
; 
_chemical_name_common             ? 
_chemical_melting_point           ? 
_chemical_formula_moiety          ? 
_chemical_formula_sum             'C24 H52 Ni4 O8 P4' 
_chemical_formula_weight          827.38 
 
loop_ 
 _atom_type_symbol 
 _atom_type_description 
 _atom_type_scat_dispersion_real 
 _atom_type_scat_dispersion_imag 
 _atom_type_scat_source 
 'C'  'C'   0.0033   0.0016 
 'International Tables Vol C Tables 4.2.6.8 and 6.1.1.4' 
 'H'  'H'   0.0000   0.0000 
 'International Tables Vol C Tables 4.2.6.8 and 6.1.1.4' 
 'O'  'O'   0.0106   0.0060 
 'International Tables Vol C Tables 4.2.6.8 and 6.1.1.4' 
 'P'  'P'   0.1023   0.0942 
 'International Tables Vol C Tables 4.2.6.8 and 6.1.1.4' 
 'Ni'  'Ni'   0.3393   1.1124 
 'International Tables Vol C Tables 4.2.6.8 and 6.1.1.4' 
 
_symmetry_cell_setting            cubic 
_symmetry_space_group_name_H-M    P-43n
 
loop_ 
 _symmetry_equiv_pos_as_xyz 
 'x, y, z' 
 '-x, -y, z' 
 '-x, y, -z' 
 'x, -y, -z' 
 'z, x, y' 
 'z, -x, -y' 
 '-z, -x, y' 
 '-z, x, -y' 
 'y, z, x' 
 '-y, z, -x' 
 'y, -z, -x' 
 '-y, -z, x' 
 'y+1/2, x+1/2, z+1/2' 
 '-y+1/2, -x+1/2, z+1/2' 
 'y+1/2, -x+1/2, -z+1/2' 
 '-y+1/2, x+1/2, -z+1/2' 
 'x+1/2, z+1/2, y+1/2' 
 '-x+1/2, z+1/2, -y+1/2' 
 '-x+1/2, -z+1/2, y+1/2' 
 'x+1/2, -z+1/2, -y+1/2' 
 'z+1/2, y+1/2, x+1/2' 
 'z+1/2, -y+1/2, -x+1/2' 
 '-z+1/2, y+1/2, -x+1/2' 
 '-z+1/2, -y+1/2, x+1/2' 
 
_cell_length_a                    18.9491(5) 
_cell_length_b                    18.9491(5) 
_cell_length_c                    18.9491(5) 
_cell_angle_alpha                 90.00 
_cell_angle_beta                  90.00 
_cell_angle_gamma                 90.00 
_cell_volume                      6804.0(3) 
_cell_formula_units_Z             6 
_cell_measurement_temperature     183(2) 
_cell_measurement_reflns_used     ? 
_cell_measurement_theta_min       ? 
_cell_measurement_theta_max       ? 
 
_exptl_crystal_description        prism 
_exptl_crystal_colour             yellow
_exptl_crystal_size_max           0.04 
_exptl_crystal_size_mid           0.04 
_exptl_crystal_size_min           0.03 
_exptl_crystal_density_meas       ? 
_exptl_crystal_density_diffrn     1.212 
_exptl_crystal_density_method     'not measured' 
_exptl_crystal_F_000              2592 
_exptl_absorpt_coefficient_mu     1.807 
_exptl_absorpt_correction_type    NONE 
_exptl_absorpt_correction_T_min   ? 
_exptl_absorpt_correction_T_max   ? 
_exptl_absorpt_process_details    ? 
 
_exptl_special_details 
; 
 ? 
; 
 
_diffrn_ambient_temperature       183(2) 
_diffrn_radiation_wavelength      0.71073 
_diffrn_radiation_type            MoK\a 
_diffrn_radiation_source          'fine-focus sealed tube' 
_diffrn_radiation_monochromator   graphite 
_diffrn_measurement_device_type   KappaCCD 
_diffrn_measurement_method        'phi- + omega-scan'
_diffrn_detector_area_resol_mean  ? 
_diffrn_standards_number          ? 
_diffrn_standards_interval_count  ? 
_diffrn_standards_interval_time   ? 
_diffrn_standards_decay_%         ? 
_diffrn_reflns_number             4772 
_diffrn_reflns_av_R_equivalents   0.0361 
_diffrn_reflns_av_sigmaI/netI     0.0465 
_diffrn_reflns_limit_h_min        -24 
_diffrn_reflns_limit_h_max        24 
_diffrn_reflns_limit_k_min        -17 
_diffrn_reflns_limit_k_max        17 
_diffrn_reflns_limit_l_min        -16 
_diffrn_reflns_limit_l_max        16 
_diffrn_reflns_theta_min          3.88 
_diffrn_reflns_theta_max          27.47 
_reflns_number_total              2572 
_reflns_number_gt                 2196 
_reflns_threshold_expression      >2sigma(I) 
 
_computing_data_collection        COLLECT 
_computing_cell_refinement        DENZO
_computing_data_reduction         DENZO
_computing_structure_solution     'SHELXS-97 (Sheldrick, 1990)' 
_computing_structure_refinement   'SHELXL-97 (Sheldrick, 1997)' 
_computing_molecular_graphics     SHELXTL/PC
_computing_publication_material   SHELXL-97
 
_refine_special_details 
; 
 Refinement of F^2^ against ALL reflections.  The weighted R-factor wR and 
 goodness of fit S are based on F^2^, conventional R-factors R are based 
 on F, with F set to zero for negative F^2^. The threshold expression of 
 F^2^ > 2sigma(F^2^) is used only for calculating R-factors(gt) etc. and is 
 not relevant to the choice of reflections for refinement.  R-factors based 
 on F^2^ are statistically about twice as large as those based on F, and R- 
 factors based on ALL data will be even larger. 
; 
 
_refine_ls_structure_factor_coef  Fsqd  
_refine_ls_matrix_type            full 
_refine_ls_weighting_scheme       calc  
_refine_ls_weighting_details 
 'calc w=1/[\s^2^(Fo^2^)+(0.0555P)^2^+1.4294P] where P=(Fo^2^+2Fc^2^)/3' 
_atom_sites_solution_primary      direct 
_atom_sites_solution_secondary    difmap 
_atom_sites_solution_hydrogens    geom 
_refine_ls_hydrogen_treatment     mixed 
_refine_ls_extinction_method      none 
_refine_ls_extinction_coef        ? 
_refine_ls_abs_structure_details 
 'Flack H D (1983), Acta Cryst. A39, 876-881' 
_refine_ls_abs_structure_Flack    0.01(2) 
_refine_ls_number_reflns          2572 
_refine_ls_number_parameters      104 
_refine_ls_number_restraints      0 
_refine_ls_R_factor_all           0.0543 
_refine_ls_R_factor_gt            0.0414 
_refine_ls_wR_factor_ref          0.1040 
_refine_ls_wR_factor_gt           0.0982 
_refine_ls_goodness_of_fit_ref    1.106 
_refine_ls_restrained_S_all       1.106 
_refine_ls_shift/su_max           0.102 
_refine_ls_shift/su_mean          0.005 
 
loop_ 
 _atom_site_label 
 _atom_site_type_symbol 
 _atom_site_fract_x 
 _atom_site_fract_y 
 _atom_site_fract_z 
 _atom_site_U_iso_or_equiv 
 _atom_site_adp_type 
 _atom_site_occupancy 
 _atom_site_symmetry_multiplicity 
 _atom_site_calc_flag 
 _atom_site_refinement_flags 
 _atom_site_disorder_assembly 
 _atom_site_disorder_group 
Ni Ni 0.95464(3) 0.19091(2) 0.41114(3) 0.02957(15) Uani 1 1 d . . . 
P1 P 0.85120(6) 0.15488(6) 0.38792(6) 0.0376(3) Uani 1 1 d . . . 
O1 O 1.05197(14) 0.21587(13) 0.42634(13) 0.0285(5) Uani 1 1 d . . . 
C1 C 0.9905(3) 0.1049(3) 0.3719(4) 0.0689(18) Uani 1 1 d . . . 
H1A H 0.9630 0.0642 0.3897 0.11(2) Uiso 1 1 calc R . . 
H1B H 0.9867 0.1060 0.3198 0.17(4) Uiso 1 1 calc R . . 
O2 O 1.16186(16) 0.17632(16) 0.41488(19) 0.0470(8) Uani 1 1 d . . . 
C2 C 1.0647(3) 0.0983(3) 0.3932(4) 0.0625(15) Uani 1 1 d . . . 
H2A H 1.0915 0.0763 0.3542 0.086(19) Uiso 1 1 calc R . . 
H2B H 1.0676 0.0665 0.4345 0.30(8) Uiso 1 1 calc R . . 
C3 C 1.0983(2) 0.1668(2) 0.4116(2) 0.0368(9) Uani 1 1 d . . . 
C4 C 0.7804(3) 0.2150(3) 0.4070(4) 0.0666(17) Uani 1 1 d . . . 
H4A H 0.7353 0.1930 0.3943 0.070(18) Uiso 1 1 calc R . . 
H4B H 0.7868 0.2583 0.3795 0.09(2) Uiso 1 1 calc R . . 
H4C H 0.7805 0.2263 0.4574 0.059(18) Uiso 1 1 calc R . . 
C5 C 0.8385(3) 0.1316(4) 0.2949(3) 0.0697(18) Uani 1 1 d . . . 
H5A H 0.7899 0.1154 0.2877 0.14(3) Uiso 1 1 calc R . . 
H5B H 0.8713 0.0939 0.2819 0.10(3) Uiso 1 1 calc R . . 
H5C H 0.8474 0.1732 0.2654 0.20(5) Uiso 1 1 calc R . . 
C6 C 0.8214(3) 0.0763(2) 0.4321(3) 0.0478(11) Uani 1 1 d . . . 
H6A H 0.7732 0.0652 0.4170 0.14(3) Uiso 1 1 calc R . . 
H6B H 0.8221 0.0840 0.4833 0.051(14) Uiso 1 1 calc R . . 
H6C H 0.8527 0.0369 0.4202 0.13(3) Uiso 1 1 calc R . . 
 
loop_ 
 _atom_site_aniso_label 
 _atom_site_aniso_U_11 
 _atom_site_aniso_U_22 
 _atom_site_aniso_U_33 
 _atom_site_aniso_U_23 
 _atom_site_aniso_U_13 
 _atom_site_aniso_U_12 
Ni 0.0289(3) 0.0235(2) 0.0362(3) -0.00390(19) -0.0004(2) -0.00143(19) 
P1 0.0343(5) 0.0329(5) 0.0456(6) 0.0010(4) -0.0048(4) -0.0073(4) 
O1 0.0274(13) 0.0249(12) 0.0333(13) -0.0025(10) -0.0004(11) 0.0011(10) 
C1 0.039(3) 0.044(3) 0.123(6) -0.035(3) 0.004(3) -0.001(2) 
O2 0.0320(15) 0.0412(17) 0.068(2) -0.0050(15) 0.0036(14) 0.0022(12) 
C2 0.046(3) 0.035(2) 0.107(5) -0.026(3) -0.004(3) 0.005(2) 
C3 0.034(2) 0.033(2) 0.044(2) -0.0025(17) -0.0035(19) 0.0030(16) 
C4 0.037(3) 0.047(3) 0.117(5) -0.004(3) -0.013(3) 0.002(2) 
C5 0.060(3) 0.097(5) 0.052(3) 0.013(3) -0.018(3) -0.028(4) 
C6 0.046(3) 0.042(2) 0.055(3) 0.001(2) 0.011(2) -0.013(2) 
 
_geom_special_details 
; 
 All esds (except the esd in the dihedral angle between two l.s. planes) 
 are estimated using the full covariance matrix.  The cell esds are taken 
 into account individually in the estimation of esds in distances, angles 
 and torsion angles; correlations between esds in cell parameters are only 
 used when they are defined by crystal symmetry.  An approximate (isotropic) 
 treatment of cell esds is used for estimating esds involving l.s. planes. 
; 
 
loop_ 
 _geom_bond_atom_site_label_1 
 _geom_bond_atom_site_label_2 
 _geom_bond_distance 
 _geom_bond_site_symmetry_2 
 _geom_bond_publ_flag 
Ni C1 1.915(5) . ? 
Ni O1 1.926(3) . ? 
Ni O1 1.974(3) 22_556 ? 
Ni P1 2.1217(12) . ? 
P1 C4 1.796(5) . ? 
P1 C6 1.800(4) . ? 
P1 C5 1.833(6) . ? 
O1 C3 1.309(5) . ? 
O1 Ni 1.974(3) 24_654 ? 
C1 C2 1.468(8) . ? 
O2 C3 1.220(5) . ? 
C2 C3 1.486(6) . ? 
 
loop_ 
 _geom_angle_atom_site_label_1 
 _geom_angle_atom_site_label_2 
 _geom_angle_atom_site_label_3 
 _geom_angle 
 _geom_angle_site_symmetry_1 
 _geom_angle_site_symmetry_3 
 _geom_angle_publ_flag 
C1 Ni O1 85.84(17) . . ? 
C1 Ni O1 174.28(19) . 22_556 ? 
O1 Ni O1 89.27(11) . 22_556 ? 
C1 Ni P1 88.47(16) . . ? 
O1 Ni P1 174.19(8) . . ? 
O1 Ni P1 96.34(8) 22_556 . ? 
C4 P1 C6 101.4(3) . . ? 
C4 P1 C5 104.3(4) . . ? 
C6 P1 C5 102.0(3) . . ? 
C4 P1 Ni 116.38(18) . . ? 
C6 P1 Ni 117.36(17) . . ? 
C5 P1 Ni 113.48(19) . . ? 
C3 O1 Ni 115.8(2) . . ? 
C3 O1 Ni 117.2(2) . 24_654 ? 
Ni O1 Ni 126.84(13) . 24_654 ? 
C2 C1 Ni 107.8(4) . . ? 
C1 C2 C3 113.6(4) . . ? 
O2 C3 O1 123.1(4) . . ? 
O2 C3 C2 124.4(4) . . ? 
O1 C3 C2 112.5(4) . . ? 
 
_diffrn_measured_fraction_theta_max    0.992 
_diffrn_reflns_theta_full              27.47 
_diffrn_measured_fraction_theta_full   0.992 
_refine_diff_density_max    0.556 
_refine_diff_density_min   -0.411 
_refine_diff_density_rms    0.081 
 
#====== END

data_FO2086 
 
_audit_creation_method            SHELXL-97 
_chemical_name_systematic 
; 
 ? 
; 
_chemical_name_common             ? 
_chemical_melting_point           ? 
_chemical_formula_moiety          ? 
_chemical_formula_sum             'C84 H148 Ni4 O8 P4' 
_chemical_formula_weight          1644.74 
 
loop_ 
 _atom_type_symbol 
 _atom_type_description 
 _atom_type_scat_dispersion_real 
 _atom_type_scat_dispersion_imag 
 _atom_type_scat_source 
 'C'  'C'   0.0033   0.0016 
 'International Tables Vol C Tables 4.2.6.8 and 6.1.1.4' 
 'H'  'H'   0.0000   0.0000 
 'International Tables Vol C Tables 4.2.6.8 and 6.1.1.4' 
 'O'  'O'   0.0106   0.0060 
 'International Tables Vol C Tables 4.2.6.8 and 6.1.1.4' 
 'P'  'P'   0.1023   0.0942 
 'International Tables Vol C Tables 4.2.6.8 and 6.1.1.4' 
 'Ni'  'Ni'   0.3393   1.1124 
 'International Tables Vol C Tables 4.2.6.8 and 6.1.1.4' 
 
_symmetry_cell_setting            tetragonalic 
_symmetry_space_group_name_H-M    I-4
 
loop_ 
 _symmetry_equiv_pos_as_xyz 
 'x, y, z' 
 '-x, -y, z' 
 'y, -x, -z' 
 '-y, x, -z' 
 'x+1/2, y+1/2, z+1/2' 
 '-x+1/2, -y+1/2, z+1/2' 
 'y+1/2, -x+1/2, -z+1/2' 
 '-y+1/2, x+1/2, -z+1/2' 
 
_cell_length_a                    18.7303(4) 
_cell_length_b                    18.7303(4) 
_cell_length_c                    12.5854(2) 
_cell_angle_alpha                 90.00 
_cell_angle_beta                  90.00 
_cell_angle_gamma                 90.00 
_cell_volume                      4415.26(15) 
_cell_formula_units_Z             2 
_cell_measurement_temperature     183(2) 
_cell_measurement_reflns_used     ? 
_cell_measurement_theta_min       ? 
_cell_measurement_theta_max       ? 
 
_exptl_crystal_description        prism 
_exptl_crystal_colour             yellow
_exptl_crystal_size_max           0.03 
_exptl_crystal_size_mid           0.03 
_exptl_crystal_size_min           0.02 
_exptl_crystal_density_meas       ? 
_exptl_crystal_density_diffrn     1.237 
_exptl_crystal_density_method     'not measured' 
_exptl_crystal_F_000              1776 
_exptl_absorpt_coefficient_mu     0.962 
_exptl_absorpt_correction_type    NONE 
_exptl_absorpt_correction_T_min   ? 
_exptl_absorpt_correction_T_max   ? 
_exptl_absorpt_process_details    ? 
 
_exptl_special_details 
; 
 ? 
; 
 
_diffrn_ambient_temperature       183(2) 
_diffrn_radiation_wavelength      0.71073 
_diffrn_radiation_type            MoK\a 
_diffrn_radiation_source          'fine-focus sealed tube' 
_diffrn_radiation_monochromator   graphite 
_diffrn_measurement_device_type   KappaCCD 
_diffrn_measurement_method        'phi- + omega-scan'
_diffrn_detector_area_resol_mean  ? 
_diffrn_standards_number          ? 
_diffrn_standards_interval_count  ? 
_diffrn_standards_interval_time   ? 
_diffrn_standards_decay_%         ? 
_diffrn_reflns_number             15825 
_diffrn_reflns_av_R_equivalents   0.0442 
_diffrn_reflns_av_sigmaI/netI     0.0460 
_diffrn_reflns_limit_h_min        -23 
_diffrn_reflns_limit_h_max        24 
_diffrn_reflns_limit_k_min        -23 
_diffrn_reflns_limit_k_max        24 
_diffrn_reflns_limit_l_min        -15 
_diffrn_reflns_limit_l_max        16 
_diffrn_reflns_theta_min          2.92 
_diffrn_reflns_theta_max          27.48 
_reflns_number_total              5043 
_reflns_number_gt                 4408 
_reflns_threshold_expression      >2sigma(I) 
 
_computing_data_collection        COLLECT 
_computing_cell_refinement        DENZO
_computing_data_reduction         DENZO
_computing_structure_solution     'SHELXS-97 (Sheldrick, 1990)' 
_computing_structure_refinement   'SHELXL-97 (Sheldrick, 1997)' 
_computing_molecular_graphics     SHELXTL/PC
_computing_publication_material   SHELXL-97
 
_refine_special_details 
; 
 Refinement of F^2^ against ALL reflections.  The weighted R-factor wR and 
 goodness of fit S are based on F^2^, conventional R-factors R are based 
 on F, with F set to zero for negative F^2^. The threshold expression of 
 F^2^ > 2sigma(F^2^) is used only for calculating R-factors(gt) etc. and is 
 not relevant to the choice of reflections for refinement.  R-factors based 
 on F^2^ are statistically about twice as large as those based on F, and R- 
 factors based on ALL data will be even larger. 
; 
 
_refine_ls_structure_factor_coef  Fsqd  
_refine_ls_matrix_type            full 
_refine_ls_weighting_scheme       calc  
_refine_ls_weighting_details 
 'calc w=1/[\s^2^(Fo^2^)+(0.1034P)^2^+0.5167P] where P=(Fo^2^+2Fc^2^)/3' 
_atom_sites_solution_primary      direct 
_atom_sites_solution_secondary    difmap 
_atom_sites_solution_hydrogens    geom 
_refine_ls_hydrogen_treatment     mixed 
_refine_ls_extinction_method      none 
_refine_ls_extinction_coef        ? 
_refine_ls_abs_structure_details 
 'Flack H D (1983), Acta Cryst. A39, 876-881' 
_refine_ls_abs_structure_Flack    0.486(19) 
_refine_ls_number_reflns          5043 
_refine_ls_number_parameters      227 
_refine_ls_number_restraints      0 
_refine_ls_R_factor_all           0.0594 
_refine_ls_R_factor_gt            0.0482 
_refine_ls_wR_factor_ref          0.1441 
_refine_ls_wR_factor_gt           0.1358 
_refine_ls_goodness_of_fit_ref    1.052 
_refine_ls_restrained_S_all       1.052 
_refine_ls_shift/su_max           0.000 
_refine_ls_shift/su_mean          0.000 
 
loop_ 
 _atom_site_label 
 _atom_site_type_symbol 
 _atom_site_fract_x 
 _atom_site_fract_y 
 _atom_site_fract_z 
 _atom_site_U_iso_or_equiv 
 _atom_site_adp_type 
 _atom_site_occupancy 
 _atom_site_symmetry_multiplicity 
 _atom_site_calc_flag 
 _atom_site_refinement_flags 
 _atom_site_disorder_assembly 
 _atom_site_disorder_group 
Ni Ni 0.59797(2) 0.39367(2) 0.10546(3) 0.02323(14) Uani 1 1 d . . . 
P1 P 0.59397(5) 0.29678(5) 0.19618(8) 0.0246(2) Uani 1 1 d . . . 
O1 O 0.61305(15) 0.47908(14) 0.0269(2) 0.0277(6) Uani 1 1 d . . . 
O2 O 0.65340(15) 0.59001(15) 0.0356(2) 0.0291(6) Uani 1 1 d . . . 
C1 C 0.6065(2) 0.4549(2) 0.2284(3) 0.0288(8) Uani 1 1 d . . . 
H1A H 0.5590 0.4726 0.2508 0.035 Uiso 1 1 calc R . . 
H1B H 0.6284 0.4287 0.2885 0.035 Uiso 1 1 calc R . . 
C2 C 0.6544(2) 0.5170(2) 0.1935(3) 0.0286(8) Uani 1 1 d . . . 
H2A H 0.6439 0.5600 0.2364 0.034 Uiso 1 1 calc R . . 
H2B H 0.7053 0.5043 0.2036 0.034 Uiso 1 1 calc R . . 
C3 C 0.6395(2) 0.5313(2) 0.0777(3) 0.0245(7) Uani 1 1 d . . . 
C4 C 0.5515(2) 0.3000(2) 0.3284(3) 0.0315(9) Uani 1 1 d . . . 
H4A H 0.5836 0.3305 0.3728 0.038 Uiso 1 1 calc R . . 
C5 C 0.4789(2) 0.3386(3) 0.3281(4) 0.0393(10) Uani 1 1 d . . . 
H5A H 0.4838 0.3856 0.2929 0.047 Uiso 1 1 calc R . . 
H5B H 0.4437 0.3101 0.2876 0.047 Uiso 1 1 calc R . . 
C6 C 0.4527(3) 0.3489(3) 0.4420(4) 0.0500(13) Uani 1 1 d . . . 
H6A H 0.4863 0.3804 0.4805 0.060 Uiso 1 1 calc R . . 
H6B H 0.4055 0.3726 0.4409 0.060 Uiso 1 1 calc R . . 
C7 C 0.4467(3) 0.2791(4) 0.4994(5) 0.0611(16) Uani 1 1 d . . . 
H7A H 0.4104 0.2489 0.4640 0.073 Uiso 1 1 calc R . . 
H7B H 0.4308 0.2878 0.5733 0.073 Uiso 1 1 calc R . . 
C8 C 0.5179(3) 0.2401(4) 0.5007(4) 0.0564(14) Uani 1 1 d . . . 
H8A H 0.5120 0.1933 0.5362 0.068 Uiso 1 1 calc R . . 
H8B H 0.5530 0.2683 0.5420 0.068 Uiso 1 1 calc R . . 
C9 C 0.5462(3) 0.2286(2) 0.3879(4) 0.0383(10) Uani 1 1 d . . . 
H9A H 0.5139 0.1960 0.3489 0.046 Uiso 1 1 calc R . . 
H9B H 0.5940 0.2060 0.3912 0.046 Uiso 1 1 calc R . . 
C10 C 0.6859(2) 0.2647(2) 0.2224(3) 0.0288(8) Uani 1 1 d . . . 
H10A H 0.6831 0.2156 0.2535 0.035 Uiso 1 1 calc R . . 
C11 C 0.7261(2) 0.3130(3) 0.2999(3) 0.0352(9) Uani 1 1 d . . . 
H11A H 0.7021 0.3117 0.3700 0.042 Uiso 1 1 calc R . . 
H11B H 0.7245 0.3628 0.2736 0.042 Uiso 1 1 calc R . . 
C12 C 0.8044(2) 0.2899(3) 0.3132(4) 0.0395(10) Uani 1 1 d . . . 
H12A H 0.8289 0.3232 0.3622 0.047 Uiso 1 1 calc R . . 
H12B H 0.8062 0.2416 0.3449 0.047 Uiso 1 1 calc R . . 
C13 C 0.8422(2) 0.2895(3) 0.2079(4) 0.0411(11) Uani 1 1 d . . . 
H13A H 0.8921 0.2731 0.2177 0.049 Uiso 1 1 calc R . . 
H13B H 0.8433 0.3384 0.1782 0.049 Uiso 1 1 calc R . . 
C14 C 0.8024(3) 0.2383(3) 0.1295(4) 0.0458(12) Uani 1 1 d . . . 
H14A H 0.8268 0.2389 0.0597 0.055 Uiso 1 1 calc R . . 
H14B H 0.8042 0.1889 0.1574 0.055 Uiso 1 1 calc R . . 
C15 C 0.7260(2) 0.2606(2) 0.1157(4) 0.0352(9) Uani 1 1 d . . . 
H15A H 0.7016 0.2260 0.0687 0.042 Uiso 1 1 calc R . . 
H15B H 0.7245 0.3079 0.0808 0.042 Uiso 1 1 calc R . . 
C16 C 0.5539(2) 0.2233(2) 0.1173(3) 0.0319(9) Uani 1 1 d . . . 
H16A H 0.5719 0.2308 0.0433 0.038 Uiso 1 1 calc R . . 
C17 C 0.5737(3) 0.1452(2) 0.1444(4) 0.0406(10) Uani 1 1 d . . . 
H17A H 0.6262 0.1402 0.1488 0.049 Uiso 1 1 calc R . . 
H17B H 0.5531 0.1320 0.2141 0.049 Uiso 1 1 calc R . . 
C18 C 0.5446(3) 0.0958(3) 0.0585(4) 0.0503(13) Uani 1 1 d . . . 
H18A H 0.5559 0.0457 0.0773 0.060 Uiso 1 1 calc R . . 
H18B H 0.5684 0.1068 -0.0098 0.060 Uiso 1 1 calc R . . 
C19 C 0.4641(3) 0.1036(3) 0.0449(4) 0.0497(13) Uani 1 1 d . . . 
H19A H 0.4399 0.0870 0.1103 0.060 Uiso 1 1 calc R . . 
H19B H 0.4481 0.0730 -0.0146 0.060 Uiso 1 1 calc R . . 
C20 C 0.4427(3) 0.1809(3) 0.0227(4) 0.0498(13) Uani 1 1 d . . . 
H20A H 0.4618 0.1957 -0.0473 0.060 Uiso 1 1 calc R . . 
H20B H 0.3900 0.1846 0.0200 0.060 Uiso 1 1 calc R . . 
C21 C 0.4714(2) 0.2309(2) 0.1086(4) 0.0359(9) Uani 1 1 d . . . 
H21A H 0.4491 0.2191 0.1777 0.043 Uiso 1 1 calc R . . 
H21B H 0.4589 0.2809 0.0908 0.043 Uiso 1 1 calc R . . 
 
loop_ 
 _atom_site_aniso_label 
 _atom_site_aniso_U_11 
 _atom_site_aniso_U_22 
 _atom_site_aniso_U_33 
 _atom_site_aniso_U_23 
 _atom_site_aniso_U_13 
 _atom_site_aniso_U_12 
Ni 0.0233(3) 0.0233(3) 0.0232(2) 0.00048(17) -0.00241(18) 0.00126(19) 
P1 0.0226(5) 0.0240(5) 0.0272(5) 0.0017(3) 0.0000(4) -0.0004(4) 
O1 0.0337(15) 0.0251(14) 0.0243(13) 0.0013(10) -0.0038(11) -0.0014(11) 
O2 0.0282(15) 0.0294(15) 0.0298(14) 0.0025(11) -0.0025(11) -0.0034(12) 
C1 0.033(2) 0.028(2) 0.0256(19) 0.0035(15) 0.0007(15) 0.0041(17) 
C2 0.0269(19) 0.031(2) 0.0279(19) 0.0007(16) -0.0023(15) -0.0014(16) 
C3 0.0203(18) 0.0249(18) 0.0282(19) 0.0019(13) -0.0011(13) 0.0013(15) 
C4 0.029(2) 0.032(2) 0.033(2) 0.0016(16) 0.0034(16) -0.0016(17) 
C5 0.029(2) 0.039(2) 0.050(3) -0.003(2) 0.0102(19) 0.0033(19) 
C6 0.036(3) 0.061(3) 0.053(3) -0.018(2) 0.014(2) -0.006(2) 
C7 0.054(3) 0.093(5) 0.037(3) -0.011(3) 0.021(2) -0.021(3) 
C8 0.061(4) 0.074(4) 0.034(3) 0.007(2) 0.004(2) -0.016(3) 
C9 0.041(2) 0.037(2) 0.037(2) 0.0092(19) 0.0095(19) -0.0026(19) 
C10 0.026(2) 0.030(2) 0.030(2) 0.0021(15) -0.0022(15) 0.0035(16) 
C11 0.027(2) 0.046(3) 0.032(2) -0.0071(18) -0.0009(16) 0.0060(18) 
C12 0.030(2) 0.052(3) 0.036(2) 0.001(2) -0.0076(18) 0.009(2) 
C13 0.024(2) 0.053(3) 0.046(3) 0.001(2) -0.0034(18) 0.006(2) 
C14 0.035(2) 0.057(3) 0.045(3) -0.005(2) 0.0052(19) 0.011(2) 
C15 0.030(2) 0.041(2) 0.035(2) -0.0031(18) 0.0039(17) 0.0027(17) 
C16 0.039(2) 0.0254(19) 0.031(2) 0.0016(15) 0.0001(16) -0.0070(17) 
C17 0.046(3) 0.029(2) 0.047(3) -0.0021(18) -0.003(2) 0.001(2) 
C18 0.068(4) 0.029(2) 0.054(3) -0.004(2) 0.008(2) -0.011(2) 
C19 0.061(3) 0.041(3) 0.047(3) -0.005(2) -0.002(2) -0.024(2) 
C20 0.058(3) 0.049(3) 0.042(3) 0.004(2) -0.017(2) -0.022(2) 
C21 0.037(2) 0.035(2) 0.036(2) 0.0034(18) -0.0090(19) -0.0050(17) 
 
_geom_special_details 
; 
 All esds (except the esd in the dihedral angle between two l.s. planes) 
 are estimated using the full covariance matrix.  The cell esds are taken 
 into account individually in the estimation of esds in distances, angles 
 and torsion angles; correlations between esds in cell parameters are only 
 used when they are defined by crystal symmetry.  An approximate (isotropic) 
 treatment of cell esds is used for estimating esds involving l.s. planes. 
; 
 
loop_ 
 _geom_bond_atom_site_label_1 
 _geom_bond_atom_site_label_2 
 _geom_bond_distance 
 _geom_bond_site_symmetry_2 
 _geom_bond_publ_flag 
Ni O1 1.902(3) . ? 
Ni C1 1.933(4) . ? 
Ni O2 1.987(3) 3_565 ? 
Ni P1 2.1454(11) . ? 
P1 C4 1.845(4) . ? 
P1 C10 1.853(4) . ? 
P1 C16 1.856(4) . ? 
O1 C3 1.270(5) . ? 
O2 C3 1.248(5) . ? 
O2 Ni 1.987(3) 4_655 ? 
C1 C2 1.533(6) . ? 
C2 C3 1.509(5) . ? 
C4 C9 1.536(6) . ? 
C4 C5 1.540(6) . ? 
C5 C6 1.527(7) . ? 
C6 C7 1.499(9) . ? 
C7 C8 1.521(9) . ? 
C8 C9 1.530(7) . ? 
C10 C11 1.528(6) . ? 
C10 C15 1.541(6) . ? 
C11 C12 1.538(6) . ? 
C12 C13 1.503(7) . ? 
C13 C14 1.565(7) . ? 
C14 C15 1.501(6) . ? 
C16 C17 1.548(6) . ? 
C16 C21 1.556(6) . ? 
C17 C18 1.523(7) . ? 
C18 C19 1.523(8) . ? 
C19 C20 1.529(8) . ? 
C20 C21 1.527(6) . ? 
 
loop_ 
 _geom_angle_atom_site_label_1 
 _geom_angle_atom_site_label_2 
 _geom_angle_atom_site_label_3 
 _geom_angle 
 _geom_angle_site_symmetry_1 
 _geom_angle_site_symmetry_3 
 _geom_angle_publ_flag 
O1 Ni C1 84.57(15) . . ? 
O1 Ni O2 85.40(12) . 3_565 ? 
C1 Ni O2 169.91(15) . 3_565 ? 
O1 Ni P1 173.44(9) . . ? 
C1 Ni P1 94.50(12) . . ? 
O2 Ni P1 95.59(9) 3_565 . ? 
C4 P1 C10 104.49(19) . . ? 
C4 P1 C16 109.42(19) . . ? 
C10 P1 C16 103.33(19) . . ? 
C4 P1 Ni 117.86(14) . . ? 
C10 P1 Ni 109.69(14) . . ? 
C16 P1 Ni 110.89(14) . . ? 
C3 O1 Ni 116.4(2) . . ? 
C3 O2 Ni 110.7(2) . 4_655 ? 
C2 C1 Ni 105.6(3) . . ? 
C3 C2 C1 107.7(3) . . ? 
O2 C3 O1 123.1(3) . . ? 
O2 C3 C2 121.9(3) . . ? 
O1 C3 C2 114.9(3) . . ? 
C9 C4 C5 110.7(4) . . ? 
C9 C4 P1 116.1(3) . . ? 
C5 C4 P1 113.2(3) . . ? 
C6 C5 C4 109.9(4) . . ? 
C7 C6 C5 111.5(5) . . ? 
C6 C7 C8 111.0(4) . . ? 
C7 C8 C9 111.2(5) . . ? 
C8 C9 C4 110.6(4) . . ? 
C11 C10 C15 110.2(3) . . ? 
C11 C10 P1 112.3(3) . . ? 
C15 C10 P1 108.3(3) . . ? 
C10 C11 C12 111.9(4) . . ? 
C13 C12 C11 110.8(4) . . ? 
C12 C13 C14 109.5(4) . . ? 
C15 C14 C13 110.9(4) . . ? 
C14 C15 C10 112.2(4) . . ? 
C17 C16 C21 109.9(3) . . ? 
C17 C16 P1 119.1(3) . . ? 
C21 C16 P1 111.8(3) . . ? 
C18 C17 C16 109.4(4) . . ? 
C17 C18 C19 112.0(4) . . ? 
C18 C19 C20 111.8(4) . . ? 
C21 C20 C19 111.1(4) . . ? 
C20 C21 C16 110.0(4) . . ? 
 
_diffrn_measured_fraction_theta_max    0.998 
_diffrn_reflns_theta_full              27.48 
_diffrn_measured_fraction_theta_full   0.998 
_refine_diff_density_max    1.772 
_refine_diff_density_min   -0.348 
_refine_diff_density_rms    0.130 
 

#===== END

data_FO2183 
 
_audit_creation_method            SHELXL-97 
_chemical_name_systematic 
; 
 ? 
; 
_chemical_name_common             ? 
_chemical_melting_point           ? 
_chemical_formula_moiety          ? 
_chemical_formula_sum             'C54 H114 Ni6 O12 P6 * C3 H7 N O' 
_chemical_formula_weight          1566.63 
 
loop_ 
 _atom_type_symbol 
 _atom_type_description 
 _atom_type_scat_dispersion_real 
 _atom_type_scat_dispersion_imag 
 _atom_type_scat_source 
 'C'  'C'   0.0033   0.0016 
 'International Tables Vol C Tables 4.2.6.8 and 6.1.1.4' 
 'H'  'H'   0.0000   0.0000 
 'International Tables Vol C Tables 4.2.6.8 and 6.1.1.4' 
 'O'  'O'   0.0106   0.0060 
 'International Tables Vol C Tables 4.2.6.8 and 6.1.1.4' 
 'P'  'P'   0.1023   0.0942 
 'International Tables Vol C Tables 4.2.6.8 and 6.1.1.4' 
 'Ni'  'Ni'   0.3393   1.1124 
 'International Tables Vol C Tables 4.2.6.8 and 6.1.1.4' 
 'N'  'N'   0.0061   0.0033 
 'International Tables Vol C Tables 4.2.6.8 and 6.1.1.4' 
 
_symmetry_cell_setting            triclinic 
_symmetry_space_group_name_H-M    P-1
 
loop_ 
 _symmetry_equiv_pos_as_xyz 
 'x, y, z' 
 '-x, -y, -z' 
 
_cell_length_a                    15.0676(5) 
_cell_length_b                    16.0297(5) 
_cell_length_c                    16.1476(6) 
_cell_angle_alpha                 98.279(2) 
_cell_angle_beta                  104.586(2) 
_cell_angle_gamma                 93.720(2) 
_cell_volume                      3714.2(2) 
_cell_formula_units_Z             2 
_cell_measurement_temperature     183(2) 
_cell_measurement_reflns_used     ? 
_cell_measurement_theta_min       ? 
_cell_measurement_theta_max       ? 
 
_exptl_crystal_description        prism 
_exptl_crystal_colour             green
_exptl_crystal_size_max           0.03 
_exptl_crystal_size_mid           0.03 
_exptl_crystal_size_min           0.03 
_exptl_crystal_density_meas       ? 
_exptl_crystal_density_diffrn     1.401 
_exptl_crystal_density_method     'not measured' 
_exptl_crystal_F_000              1664 
_exptl_absorpt_coefficient_mu     1.672 
_exptl_absorpt_correction_type    NONE
_exptl_absorpt_correction_T_min   ? 
_exptl_absorpt_correction_T_max   ? 
_exptl_absorpt_process_details    ? 
 
_exptl_special_details 
; 
 ? 
; 
 
_diffrn_ambient_temperature       183(2) 
_diffrn_radiation_wavelength      0.71073 
_diffrn_radiation_type            MoK\a 
_diffrn_radiation_source          'fine-focus sealed tube' 
_diffrn_radiation_monochromator   graphite 
_diffrn_measurement_device_type   KappaCCD 
_diffrn_measurement_method        'phi- + omega-scan'
_diffrn_detector_area_resol_mean  ? 
_diffrn_standards_number          ? 
_diffrn_standards_interval_count  ? 
_diffrn_standards_interval_time   ? 
_diffrn_standards_decay_%         ? 
_diffrn_reflns_number             25864 
_diffrn_reflns_av_R_equivalents   0.0522 
_diffrn_reflns_av_sigmaI/netI     0.0960 
_diffrn_reflns_limit_h_min        -18 
_diffrn_reflns_limit_h_max        19 
_diffrn_reflns_limit_k_min        -20 
_diffrn_reflns_limit_k_max        19 
_diffrn_reflns_limit_l_min        -19 
_diffrn_reflns_limit_l_max        20 
_diffrn_reflns_theta_min          2.64 
_diffrn_reflns_theta_max          27.46 
_reflns_number_total              16553 
_reflns_number_gt                 10794 
_reflns_threshold_expression      >2sigma(I) 
 
_computing_data_collection        COLLECT
_computing_cell_refinement        DENZO
_computing_data_reduction         DENZO
_computing_structure_solution     'SHELXS-97 (Sheldrick, 1990)' 
_computing_structure_refinement   'SHELXL-97 (Sheldrick, 1997)' 
_computing_molecular_graphics     SHELXTL/PC
_computing_publication_material   SHELXL-97
 
_refine_special_details 
; 
 Refinement of F^2^ against ALL reflections.  The weighted R-factor wR and 
 goodness of fit S are based on F^2^, conventional R-factors R are based 
 on F, with F set to zero for negative F^2^. The threshold expression of 
 F^2^ > 2sigma(F^2^) is used only for calculating R-factors(gt) etc. and is 
 not relevant to the choice of reflections for refinement.  R-factors based 
 on F^2^ are statistically about twice as large as those based on F, and R- 
 factors based on ALL data will be even larger. 
; 
 
_refine_ls_structure_factor_coef  Fsqd  
_refine_ls_matrix_type            full 
_refine_ls_weighting_scheme       calc  
_refine_ls_weighting_details 
 'calc w=1/[\s^2^(Fo^2^)+(0.0596P)^2^+6.6641P] where P=(Fo^2^+2Fc^2^)/3' 
_atom_sites_solution_primary      direct 
_atom_sites_solution_secondary    difmap 
_atom_sites_solution_hydrogens    geom 
_refine_ls_hydrogen_treatment     mixed 
_refine_ls_extinction_method      none 
_refine_ls_extinction_coef        ? 
_refine_ls_number_reflns          16553 
_refine_ls_number_parameters      761 
_refine_ls_number_restraints      0 
_refine_ls_R_factor_all           0.1118 
_refine_ls_R_factor_gt            0.0627 
_refine_ls_wR_factor_ref          0.1653 
_refine_ls_wR_factor_gt           0.1373 
_refine_ls_goodness_of_fit_ref    1.037 
_refine_ls_restrained_S_all       1.037 
_refine_ls_shift/su_max           0.032 
_refine_ls_shift/su_mean          0.000 
 
loop_ 
 _atom_site_label 
 _atom_site_type_symbol 
 _atom_site_fract_x 
 _atom_site_fract_y 
 _atom_site_fract_z 
 _atom_site_U_iso_or_equiv 
 _atom_site_adp_type 
 _atom_site_occupancy 
 _atom_site_symmetry_multiplicity 
 _atom_site_calc_flag 
 _atom_site_refinement_flags 
 _atom_site_disorder_assembly 
 _atom_site_disorder_group 
NiA Ni 0.42268(4) 0.67056(4) 0.48016(4) 0.03069(15) Uani 1 1 d . . . 
P1A P 0.40592(9) 0.58699(8) 0.36161(9) 0.0329(3) Uani 1 1 d . . . 
O1A O 0.4237(2) 0.7571(2) 0.5765(2) 0.0334(8) Uani 1 1 d . . . 
O2A O 0.3336(2) 0.8432(2) 0.6305(2) 0.0374(8) Uani 1 1 d . . . 
C1A C 0.2912(4) 0.6629(4) 0.4566(4) 0.0409(13) Uani 1 1 d . . . 
H1AA H 0.2625 0.6525 0.3932 0.049 Uiso 1 1 calc R . . 
H1AB H 0.2682 0.6158 0.4818 0.049 Uiso 1 1 calc R . . 
C2A C 0.2679(4) 0.7471(4) 0.4980(4) 0.0424(13) Uani 1 1 d . . . 
H2AA H 0.2567 0.7860 0.4550 0.051 Uiso 1 1 calc R . . 
H2AB H 0.2110 0.7380 0.5171 0.051 Uiso 1 1 calc R . . 
C3A C 0.3467(4) 0.7861(3) 0.5751(3) 0.0349(11) Uani 1 1 d . . . 
C4A C 0.5120(4) 0.5553(3) 0.3357(4) 0.0381(12) Uani 1 1 d . . . 
H4AA H 0.4961 0.5266 0.2745 0.046 Uiso 1 1 calc R . . 
H4AB H 0.5539 0.6070 0.3408 0.046 Uiso 1 1 calc R . . 
C5A C 0.5634(4) 0.4964(4) 0.3929(4) 0.0492(15) Uani 1 1 d . . . 
H5AA H 0.6204 0.4850 0.3766 0.074 Uiso 1 1 calc R . . 
H5AB H 0.5243 0.4430 0.3849 0.074 Uiso 1 1 calc R . . 
H5AC H 0.5784 0.5235 0.4538 0.074 Uiso 1 1 calc R . . 
C6A C 0.3531(4) 0.6375(3) 0.2687(4) 0.0403(12) Uani 1 1 d . . . 
H6AA H 0.3627 0.6050 0.2152 0.048 Uiso 1 1 calc R . . 
H6AB H 0.2859 0.6357 0.2621 0.048 Uiso 1 1 calc R . . 
C7A C 0.3931(4) 0.7285(4) 0.2789(4) 0.0507(15) Uani 1 1 d . . . 
H7AA H 0.3657 0.7517 0.2265 0.076 Uiso 1 1 calc R . . 
H7AB H 0.4600 0.7309 0.2878 0.076 Uiso 1 1 calc R . . 
H7AC H 0.3793 0.7620 0.3291 0.076 Uiso 1 1 calc R . . 
C8A C 0.3341(4) 0.4867(4) 0.3465(4) 0.0434(13) Uani 1 1 d . . . 
H8AA H 0.3669 0.4514 0.3874 0.052 Uiso 1 1 calc R . . 
H8AB H 0.2765 0.4990 0.3626 0.052 Uiso 1 1 calc R . . 
C9A C 0.3084(5) 0.4350(4) 0.2555(4) 0.0622(18) Uani 1 1 d . . . 
H9AA H 0.2777 0.3794 0.2561 0.093 Uiso 1 1 calc R . . 
H9AB H 0.3644 0.4275 0.2360 0.093 Uiso 1 1 calc R . . 
H9AC H 0.2667 0.4649 0.2158 0.093 Uiso 1 1 calc R . . 
NiB Ni 0.69344(4) 0.83741(4) 0.43093(4) 0.03017(15) Uani 1 1 d . . . 
P1B P 0.81142(9) 0.90731(8) 0.41366(9) 0.0315(3) Uani 1 1 d . . . 
O1B O 0.5912(2) 0.7695(2) 0.4474(2) 0.0338(8) Uani 1 1 d . . . 
O2B O 0.5555(2) 0.6740(2) 0.5246(2) 0.0342(8) Uani 1 1 d . . . 
C1B C 0.7595(4) 0.8141(4) 0.5421(4) 0.0417(13) Uani 1 1 d . . . 
H1BA H 0.8256 0.8109 0.5449 0.050 Uiso 1 1 calc R . . 
H1BB H 0.7544 0.8589 0.5893 0.050 Uiso 1 1 calc R . . 
C2B C 0.7142(4) 0.7289(4) 0.5503(4) 0.0387(12) Uani 1 1 d . . . 
H2BA H 0.7425 0.6821 0.5229 0.046 Uiso 1 1 calc R . . 
H2BB H 0.7231 0.7242 0.6122 0.046 Uiso 1 1 calc R . . 
C3B C 0.6126(3) 0.7231(3) 0.5055(3) 0.0321(11) Uani 1 1 d . . . 
C4B C 0.9277(3) 0.8823(3) 0.4630(4) 0.0369(12) Uani 1 1 d . . . 
H4BA H 0.9724 0.9218 0.4482 0.044 Uiso 1 1 calc R . . 
H4BB H 0.9383 0.8935 0.5269 0.044 Uiso 1 1 calc R . . 
C5B C 0.9485(4) 0.7918(4) 0.4368(4) 0.0468(14) Uani 1 1 d . . . 
H5BA H 1.0118 0.7850 0.4677 0.070 Uiso 1 1 calc R . . 
H5BB H 0.9418 0.7806 0.3741 0.070 Uiso 1 1 calc R . . 
H5BC H 0.9054 0.7518 0.4517 0.070 Uiso 1 1 calc R . . 
C6B C 0.8233(4) 1.0215(3) 0.4537(4) 0.0390(12) Uani 1 1 d . . . 
H6BA H 0.8797 1.0481 0.4432 0.047 Uiso 1 1 calc R . . 
H6BB H 0.7699 1.0464 0.4206 0.047 Uiso 1 1 calc R . . 
C7B C 0.8288(4) 1.0419(4) 0.5497(4) 0.0512(15) Uani 1 1 d . . . 
H7BA H 0.8385 1.1035 0.5683 0.077 Uiso 1 1 calc R . . 
H7BB H 0.8803 1.0158 0.5828 0.077 Uiso 1 1 calc R . . 
H7BC H 0.7711 1.0195 0.5599 0.077 Uiso 1 1 calc R . . 
C8B C 0.8082(4) 0.9006(4) 0.2988(4) 0.0455(14) Uani 1 1 d . . . 
H8BA H 0.7954 0.8400 0.2720 0.055 Uiso 1 1 calc R . . 
H8BB H 0.7551 0.9294 0.2711 0.055 Uiso 1 1 calc R . . 
C9B C 0.8918(5) 0.9365(4) 0.2759(4) 0.0570(17) Uani 1 1 d . . . 
H9BA H 0.8769 0.9376 0.2134 0.086 Uiso 1 1 calc R . . 
H9BB H 0.9421 0.9012 0.2915 0.086 Uiso 1 1 calc R . . 
H9BC H 0.9109 0.9944 0.3077 0.086 Uiso 1 1 calc R . . 
NiC Ni 0.57276(4) 1.08244(4) 0.27798(4) 0.03317(16) Uani 1 1 d . . . 
P1C P 0.52667(11) 1.17283(11) 0.19764(11) 0.0462(4) Uani 1 1 d . . . 
O1C O 0.6128(2) 0.9907(2) 0.3382(2) 0.0363(8) Uani 1 1 d . . . 
O2C O 0.6106(2) 0.8501(2) 0.3202(2) 0.0358(8) Uani 1 1 d . . . 
C1C C 0.4852(5) 0.9962(4) 0.1983(4) 0.0550(17) Uani 1 1 d . . . 
H1AC H 0.4243 0.9975 0.2109 0.066 Uiso 1 1 calc R . . 
H1AD H 0.4781 1.0063 0.1380 0.066 Uiso 1 1 calc R . . 
C2C C 0.5189(5) 0.9144(4) 0.2081(5) 0.0632(19) Uani 1 1 d . . . 
H2CA H 0.5508 0.8974 0.1626 0.076 Uiso 1 1 calc R . . 
H2CB H 0.4661 0.8713 0.2002 0.076 Uiso 1 1 calc R . . 
C3C C 0.5840(4) 0.9172(3) 0.2954(3) 0.0356(11) Uani 1 1 d . . . 
C4C C 0.5342(7) 1.1390(6) 0.0819(5) 0.095(3) Uani 1 1 d . . . 
H4CA H 0.4822 1.0957 0.0508 0.114 Uiso 1 1 calc R . . 
H4CB H 0.5288 1.1885 0.0514 0.114 Uiso 1 1 calc R . . 
C5C C 0.6266(9) 1.1022(8) 0.0802(8) 0.129(4) Uiso 1 1 d . . . 
H5CA H 0.6260 1.0804 0.0201 0.193 Uiso 1 1 calc R . . 
H5CB H 0.6344 1.0560 0.1142 0.193 Uiso 1 1 calc R . . 
H5CC H 0.6779 1.1469 0.1051 0.193 Uiso 1 1 calc R . . 
C6C C 0.4055(6) 1.1866(6) 0.1770(6) 0.080(2) Uani 1 1 d . . . 
H6CA H 0.3936 1.2359 0.1468 0.095 Uiso 1 1 calc R . . 
H6CB H 0.3696 1.1359 0.1376 0.095 Uiso 1 1 calc R . . 
C7C C 0.3723(6) 1.1998(6) 0.2551(5) 0.091(3) Uani 1 1 d . . . 
H7CA H 0.3073 1.2102 0.2392 0.137 Uiso 1 1 calc R . . 
H7CB H 0.4087 1.2488 0.2955 0.137 Uiso 1 1 calc R . . 
H7CC H 0.3786 1.1492 0.2828 0.137 Uiso 1 1 calc R . . 
C8C C 0.5948(5) 1.2763(4) 0.2310(5) 0.0603(18) Uani 1 1 d . . . 
H8CA H 0.5901 1.2997 0.2898 0.072 Uiso 1 1 calc R . . 
H8CB H 0.6601 1.2672 0.2361 0.072 Uiso 1 1 calc R . . 
C9C C 0.5705(7) 1.3436(4) 0.1737(5) 0.075(2) Uani 1 1 d . . . 
H9CA H 0.6040 1.3984 0.2040 0.113 Uiso 1 1 calc R . . 
H9CB H 0.5040 1.3479 0.1606 0.113 Uiso 1 1 calc R . . 
H9CC H 0.5879 1.3276 0.1195 0.113 Uiso 1 1 calc R . . 
NiD Ni 1.11172(4) 0.78781(4) 0.01757(4) 0.03324(16) Uani 1 1 d . . . 
P1D P 1.14390(10) 0.89611(9) 0.11628(10) 0.0379(3) Uani 1 1 d . . . 
O1D O 1.0962(2) 0.6915(2) -0.0730(2) 0.0370(8) Uani 1 1 d . . . 
O2D O 1.1745(3) 0.6029(2) -0.1386(3) 0.0469(10) Uani 1 1 d . . . 
C1D C 1.2381(4) 0.7669(5) 0.0491(5) 0.066(2) Uani 1 1 d . . . 
H1DA H 1.2776 0.8174 0.0456 0.079 Uiso 1 1 calc R . . 
H1DB H 1.2553 0.7563 0.1097 0.079 Uiso 1 1 calc R . . 
C2D C 1.2534(5) 0.6954(6) -0.0072(6) 0.093(3) Uani 1 1 d . . . 
H2DA H 1.2741 0.6506 0.0273 0.111 Uiso 1 1 calc R . . 
H2DB H 1.3034 0.7123 -0.0331 0.111 Uiso 1 1 calc R . . 
C3D C 1.1695(4) 0.6602(4) -0.0783(4) 0.0437(13) Uani 1 1 d . . . 
C4D C 1.0456(4) 0.9543(4) 0.1249(4) 0.0448(14) Uani 1 1 d . . . 
H4DA H 1.0137 0.9640 0.0661 0.054 Uiso 1 1 calc R . . 
H4DB H 1.0021 0.9176 0.1442 0.054 Uiso 1 1 calc R . . 
C5D C 1.0655(5) 1.0389(4) 0.1850(6) 0.072(2) Uani 1 1 d . . . 
H5DA H 1.0075 1.0635 0.1845 0.107 Uiso 1 1 calc R . . 
H5DB H 1.1062 1.0774 0.1654 0.107 Uiso 1 1 calc R . . 
H5DC H 1.0956 1.0307 0.2441 0.107 Uiso 1 1 calc R . . 
C6D C 1.1953(4) 0.8763(4) 0.2259(4) 0.0499(15) Uani 1 1 d . . . 
H6DA H 1.2602 0.8652 0.2313 0.060 Uiso 1 1 calc R . . 
H6DB H 1.1952 0.9276 0.2681 0.060 Uiso 1 1 calc R . . 
C7D C 1.1434(5) 0.8006(4) 0.2484(4) 0.0612(18) Uani 1 1 d . . . 
H7DA H 1.1726 0.7933 0.3081 0.092 Uiso 1 1 calc R . . 
H7DB H 1.1455 0.7491 0.2084 0.092 Uiso 1 1 calc R . . 
H7DC H 1.0791 0.8112 0.2432 0.092 Uiso 1 1 calc R . . 
C8D C 1.2275(4) 0.9759(4) 0.1005(4) 0.0511(15) Uani 1 1 d . . . 
H8DA H 1.2360 1.0260 0.1465 0.061 Uiso 1 1 calc R . . 
H8DB H 1.2876 0.9525 0.1065 0.061 Uiso 1 1 calc R . . 
C9D C 1.1981(5) 1.0037(5) 0.0123(5) 0.0655(19) Uani 1 1 d . . . 
H9DA H 1.2467 1.0440 0.0060 0.098 Uiso 1 1 calc R . . 
H9DB H 1.1410 1.0309 0.0076 0.098 Uiso 1 1 calc R . . 
H9DC H 1.1876 0.9541 -0.0336 0.098 Uiso 1 1 calc R . . 
NiE Ni 0.82987(4) 0.71066(4) 0.11394(4) 0.03261(16) Uani 1 1 d . . . 
P1E P 0.70662(10) 0.64398(9) 0.12486(10) 0.0382(3) Uani 1 1 d . B . 
O1E O 0.9356(2) 0.7573(2) 0.0831(2) 0.0361(8) Uani 1 1 d . . . 
O2E O 0.9809(2) 0.7986(2) -0.0275(2) 0.0355(8) Uani 1 1 d . . . 
C1E C 0.7583(4) 0.7553(4) 0.0170(4) 0.0413(13) Uani 1 1 d . . . 
H1EA H 0.7012 0.7171 -0.0122 0.050 Uiso 1 1 calc R . . 
H1EB H 0.7411 0.8120 0.0365 0.050 Uiso 1 1 calc R . . 
C2E C 0.8200(4) 0.7613(4) -0.0451(4) 0.0403(12) Uani 1 1 d . . . 
H2EA H 0.8087 0.7086 -0.0882 0.048 Uiso 1 1 calc R . . 
H2EB H 0.8054 0.8093 -0.0767 0.048 Uiso 1 1 calc R . . 
C3E C 0.9197(3) 0.7743(3) 0.0066(3) 0.0324(11) Uani 1 1 d . . . 
C4E C 0.6085(4) 0.7061(4) 0.1215(4) 0.0514(15) Uani 1 1 d . . . 
H4EA H 0.6223 0.7471 0.1763 0.062 Uiso 1 1 calc R . . 
H4EB H 0.6037 0.7393 0.0737 0.062 Uiso 1 1 calc R . . 
C5E C 0.5145(4) 0.6571(6) 0.1092(5) 0.078(2) Uani 1 1 d . . . 
H5EA H 0.4678 0.6969 0.1089 0.117 Uiso 1 1 calc R . . 
H5EB H 0.5172 0.6250 0.1569 0.117 Uiso 1 1 calc R . . 
H5EC H 0.4982 0.6178 0.0540 0.117 Uiso 1 1 calc R . . 
C6E C 0.7109(4) 0.5920(4) 0.2187(4) 0.0499(15) Uani 1 1 d . . . 
H6EA H 0.6499 0.5605 0.2109 0.060 Uiso 1 1 calc R . . 
H6EB H 0.7564 0.5499 0.2201 0.060 Uiso 1 1 calc R . . 
C7E C 0.7360(5) 0.6499(5) 0.3050(4) 0.0630(18) Uani 1 1 d . . . 
H7EA H 0.7371 0.6163 0.3513 0.095 Uiso 1 1 calc R . . 
H7EB H 0.6902 0.6906 0.3055 0.095 Uiso 1 1 calc R . . 
H7EC H 0.7970 0.6806 0.3144 0.095 Uiso 1 1 calc R . . 
C8E C 0.6669(7) 0.5521(6) 0.0404(6) 0.118(5) Uani 1 1 d . . . 
H8EA H 0.7087 0.5086 0.0574 0.141 Uiso 1 1 calc R A 1 
H8EB H 0.6058 0.5306 0.0456 0.141 Uiso 1 1 calc R A 1 
C9E C 0.6575(8) 0.5504(7) -0.0438(7) 0.057(4) Uiso 0.625(19) 1 d P B 1 
H9E1 H 0.7169 0.5694 -0.0531 0.086 Uiso 0.625(19) 1 calc PR B 1 
H9E2 H 0.6117 0.5881 -0.0657 0.086 Uiso 0.625(19) 1 calc PR B 1 
H9E3 H 0.6371 0.4924 -0.0748 0.086 Uiso 0.625(19) 1 calc PR B 1 
C9EA C 0.7087(14) 0.5159(12) -0.0136(12) 0.056(6) Uiso 0.375(19) 1 d P B 2 
H9E4 H 0.6669 0.4697 -0.0537 0.084 Uiso 0.375(19) 1 calc PR B 2 
H9E5 H 0.7634 0.4930 0.0185 0.084 Uiso 0.375(19) 1 calc PR B 2 
H9E6 H 0.7274 0.5576 -0.0465 0.084 Uiso 0.375(19) 1 calc PR B 2 
NiF Ni 0.93316(5) 0.45237(4) 0.22705(4) 0.03334(16) Uani 1 1 d . . . 
P1F P 0.95470(10) 0.35541(9) 0.30328(9) 0.0357(3) Uani 1 1 d . . . 
O1F O 0.9089(3) 0.5533(2) 0.1774(2) 0.0378(8) Uani 1 1 d . . . 
O2F O 0.9160(2) 0.6916(2) 0.2197(2) 0.0381(8) Uani 1 1 d . . . 
C1F C 1.0390(4) 0.5203(3) 0.3052(4) 0.0407(12) Uani 1 1 d . . . 
H1FA H 1.0541 0.5010 0.3622 0.049 Uiso 1 1 calc R . . 
H1FB H 1.0932 0.5173 0.2811 0.049 Uiso 1 1 calc R . . 
C2F C 1.0112(4) 0.6104(3) 0.3141(4) 0.0413(13) Uani 1 1 d . . . 
H2FA H 0.9839 0.6213 0.3639 0.050 Uiso 1 1 calc R . . 
H2FB H 1.0663 0.6517 0.3249 0.050 Uiso 1 1 calc R . . 
C3F C 0.9413(4) 0.6209(3) 0.2310(3) 0.0339(11) Uani 1 1 d . . . 
C4F C 0.8746(4) 0.2600(4) 0.2600(4) 0.0507(15) Uani 1 1 d . . . 
H4FA H 0.8112 0.2768 0.2512 0.061 Uiso 1 1 calc R . . 
H4FB H 0.8820 0.2373 0.2021 0.061 Uiso 1 1 calc R . . 
C5F C 0.8820(5) 0.1874(4) 0.3130(5) 0.0630(19) Uani 1 1 d . . . 
H5FA H 0.8333 0.1414 0.2835 0.095 Uiso 1 1 calc R . . 
H5FB H 0.8750 0.2082 0.3709 0.095 Uiso 1 1 calc R . . 
H5FC H 0.9424 0.1662 0.3184 0.095 Uiso 1 1 calc R . . 
C6F C 1.0685(4) 0.3171(4) 0.3248(4) 0.0416(13) Uani 1 1 d . . . 
H6FA H 1.1157 0.3648 0.3558 0.050 Uiso 1 1 calc R . . 
H6FB H 1.0707 0.2738 0.3631 0.050 Uiso 1 1 calc R . . 
C7F C 1.0911(4) 0.2791(5) 0.2422(4) 0.0589(18) Uani 1 1 d . . . 
H7FA H 1.1510 0.2565 0.2567 0.088 Uiso 1 1 calc R . . 
H7FB H 1.0937 0.3229 0.2061 0.088 Uiso 1 1 calc R . . 
H7FC H 1.0433 0.2332 0.2103 0.088 Uiso 1 1 calc R . . 
C8F C 0.9386(5) 0.3895(4) 0.4114(4) 0.0528(16) Uani 1 1 d . . . 
H8FA H 0.9345 0.3392 0.4399 0.063 Uiso 1 1 calc R . . 
H8FB H 0.9932 0.4279 0.4468 0.063 Uiso 1 1 calc R . . 
C9F C 0.8539(5) 0.4341(5) 0.4093(5) 0.069(2) Uani 1 1 d . . . 
H9FA H 0.8489 0.4506 0.4687 0.104 Uiso 1 1 calc R . . 
H9FB H 0.7994 0.3961 0.3754 0.104 Uiso 1 1 calc R . . 
H9FC H 0.8582 0.4848 0.3826 0.104 Uiso 1 1 calc R . . 
O1DM O 1.3528(7) 1.0238(7) 0.3483(7) 0.071(3) Uiso 0.50 1 d P C -1 
C1DM C 1.4215(9) 1.0542(9) 0.4067(8) 0.052(3) Uiso 0.50 1 d P C -1 
H1DC H 1.4436 1.1114 0.4082 0.063 Uiso 0.50 1 calc PR C -1 
N1DM N 1.4676(7) 1.0144(7) 0.4680(7) 0.049(2) Uiso 0.50 1 d P C -1 
C2DM C 1.4467(6) 0.9344(6) 0.4671(6) 0.080(2) Uani 1 1 d . C -1 
H2DC H 1.5029 0.9056 0.4755 0.121 Uiso 1 1 calc R C -1 
H2DD H 1.4038 0.9096 0.4113 0.121 Uiso 1 1 calc R C -1 
H2DE H 1.4177 0.9278 0.5140 0.121 Uiso 1 1 calc R C -1 
O2DM O 0.1469(7) 0.5859(6) 0.1529(6) 0.063(2) Uiso 0.50 1 d P D -2 
C3DM C 0.0770(8) 0.5880(8) 0.0945(8) 0.045(3) Uiso 0.50 1 d P D -2 
H3DA H 0.0504 0.6400 0.0921 0.054 Uiso 0.50 1 calc PR D -2 
N2DM N 0.0374(7) 0.5221(7) 0.0353(7) 0.044(2) Uiso 0.50 1 d P D -2 
C4DM C -0.0603(8) 0.5446(8) -0.0307(6) 0.118(4) Uani 1 1 d . D -2 
H4DC H -0.0984 0.4917 -0.0605 0.176 Uiso 1 1 calc R D -2 
H4DD H -0.0451 0.5765 -0.0736 0.176 Uiso 1 1 calc R D -2 
H4DE H -0.0942 0.5787 0.0036 0.176 Uiso 1 1 calc R D -2 
 
loop_ 
 _atom_site_aniso_label 
 _atom_site_aniso_U_11 
 _atom_site_aniso_U_22 
 _atom_site_aniso_U_33 
 _atom_site_aniso_U_23 
 _atom_site_aniso_U_13 
 _atom_site_aniso_U_12 
NiA 0.0269(3) 0.0329(3) 0.0312(3) 0.0053(3) 0.0067(3) -0.0003(2) 
P1A 0.0328(7) 0.0322(7) 0.0337(7) 0.0066(5) 0.0088(6) 0.0011(5) 
O1A 0.0258(17) 0.0354(19) 0.0340(19) -0.0012(15) 0.0031(14) 0.0013(14) 
O2A 0.0321(18) 0.0364(19) 0.039(2) 0.0022(16) 0.0023(16) 0.0085(15) 
C1A 0.034(3) 0.045(3) 0.041(3) -0.002(2) 0.012(2) -0.002(2) 
C2A 0.028(3) 0.048(3) 0.043(3) -0.001(3) -0.001(2) 0.009(2) 
C3A 0.033(3) 0.031(3) 0.038(3) 0.007(2) 0.006(2) 0.002(2) 
C4A 0.041(3) 0.037(3) 0.041(3) 0.012(2) 0.016(2) 0.009(2) 
C5A 0.047(3) 0.056(4) 0.050(4) 0.017(3) 0.014(3) 0.019(3) 
C6A 0.039(3) 0.043(3) 0.035(3) 0.007(2) 0.002(2) 0.004(2) 
C7A 0.053(4) 0.044(3) 0.049(4) 0.020(3) -0.002(3) 0.002(3) 
C8A 0.044(3) 0.038(3) 0.046(3) 0.007(2) 0.010(3) -0.005(2) 
C9A 0.076(5) 0.050(4) 0.054(4) 0.000(3) 0.014(4) -0.011(3) 
NiB 0.0258(3) 0.0313(3) 0.0323(3) 0.0088(3) 0.0042(3) 0.0013(2) 
P1B 0.0264(6) 0.0311(7) 0.0360(7) 0.0064(5) 0.0064(5) 0.0013(5) 
O1B 0.0268(17) 0.0392(19) 0.0338(19) 0.0145(16) 0.0014(14) -0.0005(15) 
O2B 0.0294(18) 0.0394(19) 0.0341(19) 0.0114(15) 0.0067(15) 0.0015(15) 
C1B 0.028(3) 0.056(3) 0.038(3) 0.017(3) 0.001(2) -0.005(2) 
C2B 0.033(3) 0.048(3) 0.037(3) 0.020(2) 0.006(2) 0.007(2) 
C3B 0.030(2) 0.034(3) 0.030(3) 0.002(2) 0.005(2) 0.004(2) 
C4B 0.025(2) 0.037(3) 0.044(3) 0.006(2) 0.003(2) 0.001(2) 
C5B 0.042(3) 0.039(3) 0.057(4) 0.005(3) 0.007(3) 0.013(2) 
C6B 0.030(3) 0.033(3) 0.052(3) 0.005(2) 0.008(2) 0.002(2) 
C7B 0.043(3) 0.048(3) 0.059(4) -0.004(3) 0.014(3) 0.007(3) 
C8B 0.044(3) 0.055(4) 0.040(3) 0.011(3) 0.014(3) 0.001(3) 
C9B 0.057(4) 0.065(4) 0.056(4) 0.012(3) 0.029(3) -0.002(3) 
NiC 0.0295(3) 0.0329(3) 0.0340(4) 0.0060(3) 0.0019(3) 0.0058(3) 
P1C 0.0395(8) 0.0514(9) 0.0484(9) 0.0222(7) 0.0048(7) 0.0063(7) 
O1C 0.0356(19) 0.0344(19) 0.035(2) 0.0070(16) 0.0003(16) 0.0093(15) 
O2C 0.0327(18) 0.0354(19) 0.036(2) 0.0143(16) -0.0014(15) 0.0002(15) 
C1C 0.056(4) 0.043(3) 0.050(4) 0.009(3) -0.016(3) -0.002(3) 
C2C 0.073(5) 0.041(3) 0.057(4) 0.018(3) -0.019(3) -0.006(3) 
C3C 0.035(3) 0.039(3) 0.032(3) 0.008(2) 0.006(2) -0.001(2) 
C4C 0.130(8) 0.070(5) 0.063(5) 0.030(4) -0.017(5) -0.023(5) 
C6C 0.065(5) 0.073(5) 0.095(6) 0.030(5) 0.001(4) 0.013(4) 
C7C 0.080(6) 0.122(8) 0.073(5) 0.007(5) 0.011(4) 0.069(6) 
C8C 0.075(5) 0.038(3) 0.062(4) 0.015(3) 0.007(4) 0.002(3) 
C9C 0.118(7) 0.047(4) 0.074(5) 0.027(4) 0.036(5) 0.018(4) 
NiD 0.0272(3) 0.0374(4) 0.0325(4) 0.0041(3) 0.0048(3) -0.0003(3) 
P1D 0.0337(7) 0.0363(7) 0.0406(8) 0.0020(6) 0.0081(6) -0.0019(6) 
O1D 0.0312(18) 0.042(2) 0.034(2) 0.0009(16) 0.0040(15) 0.0051(16) 
O2D 0.043(2) 0.039(2) 0.048(2) -0.0030(18) -0.0034(18) 0.0110(17) 
C1D 0.031(3) 0.080(5) 0.066(4) -0.028(4) -0.004(3) 0.010(3) 
C2D 0.046(4) 0.103(6) 0.090(6) -0.045(5) -0.028(4) 0.037(4) 
C3D 0.035(3) 0.041(3) 0.048(3) 0.004(3) -0.002(2) 0.007(2) 
C4D 0.044(3) 0.036(3) 0.054(4) 0.002(3) 0.018(3) 0.002(2) 
C5D 0.075(5) 0.041(4) 0.103(6) -0.009(4) 0.044(5) 0.000(3) 
C6D 0.048(3) 0.055(4) 0.039(3) -0.003(3) 0.004(3) 0.003(3) 
C7D 0.078(5) 0.059(4) 0.041(4) 0.011(3) 0.005(3) 0.005(4) 
C8D 0.044(3) 0.038(3) 0.068(4) 0.000(3) 0.017(3) -0.008(3) 
C9D 0.060(4) 0.056(4) 0.087(5) 0.024(4) 0.025(4) -0.001(3) 
NiE 0.0292(3) 0.0294(3) 0.0409(4) 0.0111(3) 0.0093(3) 0.0034(3) 
P1E 0.0370(7) 0.0347(7) 0.0430(8) 0.0006(6) 0.0161(6) -0.0048(6) 
O1E 0.0263(17) 0.043(2) 0.040(2) 0.0150(17) 0.0065(15) 0.0043(15) 
O2E 0.0309(18) 0.040(2) 0.0345(19) 0.0092(16) 0.0060(15) 0.0033(15) 
C1E 0.026(2) 0.047(3) 0.056(4) 0.020(3) 0.011(2) 0.006(2) 
C2E 0.031(3) 0.050(3) 0.042(3) 0.018(3) 0.005(2) 0.007(2) 
C3E 0.030(3) 0.029(2) 0.038(3) 0.008(2) 0.007(2) 0.004(2) 
C4E 0.033(3) 0.073(4) 0.050(4) 0.018(3) 0.008(3) 0.008(3) 
C5E 0.033(3) 0.131(7) 0.068(5) 0.014(5) 0.017(3) -0.008(4) 
C6E 0.051(3) 0.038(3) 0.077(4) 0.024(3) 0.036(3) 0.009(3) 
C7E 0.057(4) 0.083(5) 0.055(4) 0.019(4) 0.023(3) -0.003(4) 
C8E 0.134(8) 0.098(7) 0.118(8) -0.068(6) 0.098(7) -0.071(6) 
NiF 0.0338(3) 0.0319(3) 0.0334(4) 0.0070(3) 0.0048(3) 0.0092(3) 
P1F 0.0351(7) 0.0340(7) 0.0392(8) 0.0109(6) 0.0085(6) 0.0074(6) 
O1F 0.047(2) 0.0338(19) 0.0323(19) 0.0099(16) 0.0051(16) 0.0129(16) 
O2F 0.038(2) 0.0352(19) 0.043(2) 0.0140(16) 0.0089(17) 0.0070(16) 
C1F 0.041(3) 0.038(3) 0.043(3) 0.013(2) 0.005(2) 0.008(2) 
C2F 0.046(3) 0.036(3) 0.037(3) 0.008(2) 0.000(2) 0.005(2) 
C3F 0.037(3) 0.031(3) 0.040(3) 0.013(2) 0.018(2) 0.008(2) 
C4F 0.050(3) 0.038(3) 0.067(4) 0.010(3) 0.019(3) 0.003(3) 
C5F 0.079(5) 0.043(4) 0.074(5) 0.016(3) 0.032(4) -0.003(3) 
C6F 0.040(3) 0.041(3) 0.045(3) 0.015(3) 0.007(2) 0.013(2) 
C7F 0.039(3) 0.075(5) 0.058(4) 0.003(3) 0.003(3) 0.025(3) 
C8F 0.065(4) 0.053(4) 0.045(4) 0.010(3) 0.023(3) 0.007(3) 
C9F 0.076(5) 0.083(5) 0.066(5) 0.017(4) 0.043(4) 0.023(4) 
C2DM 0.076(5) 0.094(6) 0.076(6) 0.018(5) 0.024(4) 0.015(5) 
C4DM 0.118(8) 0.150(11) 0.062(6) -0.014(6) 0.020(6) -0.063(8) 
 
_geom_special_details 
; 
 All esds (except the esd in the dihedral angle between two l.s. planes) 
 are estimated using the full covariance matrix.  The cell esds are taken 
 into account individually in the estimation of esds in distances, angles 
 and torsion angles; correlations between esds in cell parameters are only 
 used when they are defined by crystal symmetry.  An approximate (isotropic) 
 treatment of cell esds is used for estimating esds involving l.s. planes. 
; 
 
loop_ 
 _geom_bond_atom_site_label_1 
 _geom_bond_atom_site_label_2 
 _geom_bond_distance 
 _geom_bond_site_symmetry_2 
 _geom_bond_publ_flag 
NiA C1A 1.914(5) . ? 
NiA O1A 1.926(3) . ? 
NiA O2B 1.942(3) . ? 
NiA P1A 2.1206(14) . ? 
P1A C8A 1.828(6) . ? 
P1A C4A 1.835(5) . ? 
P1A C6A 1.836(6) . ? 
O1A C3A 1.273(6) . ? 
O2A C3A 1.247(6) . ? 
O2A NiC 1.954(4) 2_676 ? 
C1A C2A 1.520(7) . ? 
C2A C3A 1.512(7) . ? 
C4A C5A 1.526(8) . ? 
C6A C7A 1.512(8) . ? 
C8A C9A 1.522(8) . ? 
NiB O1B 1.923(3) . ? 
NiB C1B 1.923(5) . ? 
NiB O2C 1.952(3) . ? 
NiB P1B 2.1387(14) . ? 
P1B C4B 1.829(5) . ? 
P1B C8B 1.831(6) . ? 
P1B C6B 1.833(5) . ? 
O1B C3B 1.273(6) . ? 
O2B C3B 1.254(6) . ? 
C1B C2B 1.525(8) . ? 
C2B C3B 1.510(7) . ? 
C4B C5B 1.527(7) . ? 
C6B C7B 1.517(8) . ? 
C8B C9B 1.503(8) . ? 
NiC C1C 1.924(6) . ? 
NiC O1C 1.924(4) . ? 
NiC O2A 1.954(4) 2_676 ? 
NiC P1C 2.1174(17) . ? 
P1C C6C 1.806(8) . ? 
P1C C8C 1.827(7) . ? 
P1C C4C 1.903(9) . ? 
O1C C3C 1.266(6) . ? 
O2C C3C 1.256(6) . ? 
C1C C2C 1.452(9) . ? 
C2C C3C 1.494(8) . ? 
C4C C5C 1.553(15) . ? 
C6C C7C 1.462(12) . ? 
C8C C9C 1.524(9) . ? 
NiD C1D 1.909(6) . ? 
NiD O1D 1.925(3) . ? 
NiD O2E 1.950(3) . ? 
NiD P1D 2.1200(15) . ? 
P1D C8D 1.825(6) . ? 
P1D C4D 1.824(6) . ? 
P1D C6D 1.827(6) . ? 
O1D C3D 1.259(6) . ? 
O2D C3D 1.259(7) . ? 
O2D NiF 1.934(4) 2_765 ? 
C1D C2D 1.425(9) . ? 
C2D C3D 1.491(8) . ? 
C4D C5D 1.515(8) . ? 
C6D C7D 1.536(9) . ? 
C8D C9D 1.521(10) . ? 
NiE C1E 1.923(6) . ? 
NiE O1E 1.923(3) . ? 
NiE O2F 1.944(4) . ? 
NiE P1E 2.1410(15) . ? 
P1E C8E 1.812(7) . ? 
P1E C6E 1.821(6) . ? 
P1E C4E 1.829(6) . ? 
O1E C3E 1.272(6) . ? 
O2E C3E 1.254(6) . ? 
C1E C2E 1.538(8) . ? 
C2E C3E 1.508(7) . ? 
C4E C5E 1.528(9) . ? 
C6E C7E 1.505(9) . ? 
C8E C9EA 1.293(18) . ? 
C8E C9E 1.328(14) . ? 
NiF C1F 1.920(6) . ? 
NiF O1F 1.922(4) . ? 
NiF O2D 1.934(4) 2_765 ? 
NiF P1F 2.1098(16) . ? 
P1F C4F 1.820(6) . ? 
P1F C6F 1.827(5) . ? 
P1F C8F 1.833(6) . ? 
O1F C3F 1.270(6) . ? 
O2F C3F 1.243(6) . ? 
C1F C2F 1.526(7) . ? 
C2F C3F 1.521(7) . ? 
C4F C5F 1.534(9) . ? 
C6F C7F 1.513(8) . ? 
C8F C9F 1.498(9) . ? 
O1DM C1DM 1.229(15) . ? 
C1DM N1DM 1.327(16) . ? 
N1DM C2DM 1.297(13) . ? 
O2DM C3DM 1.230(14) . ? 
C3DM N2DM 1.314(15) . ? 
N2DM C4DM 1.679(15) . ? 
 
loop_ 
 _geom_angle_atom_site_label_1 
 _geom_angle_atom_site_label_2 
 _geom_angle_atom_site_label_3 
 _geom_angle 
 _geom_angle_site_symmetry_1 
 _geom_angle_site_symmetry_3 
 _geom_angle_publ_flag 
C1A NiA O1A 85.83(18) . . ? 
C1A NiA O2B 169.6(2) . . ? 
O1A NiA O2B 88.48(14) . . ? 
C1A NiA P1A 88.13(16) . . ? 
O1A NiA P1A 170.44(12) . . ? 
O2B NiA P1A 98.57(11) . . ? 
C8A P1A C4A 104.0(3) . . ? 
C8A P1A C6A 105.1(3) . . ? 
C4A P1A C6A 102.1(3) . . ? 
C8A P1A NiA 116.75(19) . . ? 
C4A P1A NiA 116.44(19) . . ? 
C6A P1A NiA 110.89(18) . . ? 
C3A O1A NiA 115.4(3) . . ? 
C3A O2A NiC 127.2(3) . 2_676 ? 
C2A C1A NiA 106.6(4) . . ? 
C3A C2A C1A 109.8(4) . . ? 
O2A C3A O1A 125.1(5) . . ? 
O2A C3A C2A 119.9(5) . . ? 
O1A C3A C2A 115.0(4) . . ? 
C5A C4A P1A 114.8(4) . . ? 
C7A C6A P1A 112.3(4) . . ? 
C9A C8A P1A 115.9(4) . . ? 
O1B NiB C1B 85.23(19) . . ? 
O1B NiB O2C 86.01(15) . . ? 
C1B NiB O2C 171.23(19) . . ? 
O1B NiB P1B 176.94(11) . . ? 
C1B NiB P1B 93.03(16) . . ? 
O2C NiB P1B 95.72(11) . . ? 
C4B P1B C8B 103.4(3) . . ? 
C4B P1B C6B 100.3(2) . . ? 
C8B P1B C6B 103.9(3) . . ? 
C4B P1B NiB 120.48(19) . . ? 
C8B P1B NiB 111.7(2) . . ? 
C6B P1B NiB 115.01(18) . . ? 
C3B O1B NiB 114.8(3) . . ? 
C3B O2B NiA 124.0(3) . . ? 
C2B C1B NiB 105.3(3) . . ? 
C3B C2B C1B 108.3(4) . . ? 
O2B C3B O1B 123.9(4) . . ? 
O2B C3B C2B 120.8(5) . . ? 
O1B C3B C2B 115.3(5) . . ? 
C5B C4B P1B 116.2(4) . . ? 
C7B C6B P1B 112.9(4) . . ? 
C9B C8B P1B 118.3(4) . . ? 
C1C NiC O1C 84.5(2) . . ? 
C1C NiC O2A 171.4(2) . 2_676 ? 
O1C NiC O2A 86.95(15) . 2_676 ? 
C1C NiC P1C 90.0(2) . . ? 
O1C NiC P1C 173.05(12) . . ? 
O2A NiC P1C 98.57(12) 2_676 . ? 
C6C P1C C8C 109.6(4) . . ? 
C6C P1C C4C 99.8(4) . . ? 
C8C P1C C4C 103.5(4) . . ? 
C6C P1C NiC 115.7(3) . . ? 
C8C P1C NiC 114.4(2) . . ? 
C4C P1C NiC 112.2(3) . . ? 
C3C O1C NiC 115.1(3) . . ? 
C3C O2C NiB 128.0(3) . . ? 
C2C C1C NiC 108.3(4) . . ? 
C1C C2C C3C 111.4(5) . . ? 
O2C C3C O1C 124.2(5) . . ? 
O2C C3C C2C 120.4(5) . . ? 
O1C C3C C2C 115.3(5) . . ? 
C5C C4C P1C 111.4(7) . . ? 
C7C C6C P1C 114.1(6) . . ? 
C9C C8C P1C 118.0(5) . . ? 
C1D NiD O1D 85.5(2) . . ? 
C1D NiD O2E 172.8(2) . . ? 
O1D NiD O2E 87.43(15) . . ? 
C1D NiD P1D 88.98(19) . . ? 
O1D NiD P1D 173.70(12) . . ? 
O2E NiD P1D 98.02(11) . . ? 
C8D P1D C4D 103.7(3) . . ? 
C8D P1D C6D 103.4(3) . . ? 
C4D P1D C6D 105.2(3) . . ? 
C8D P1D NiD 113.4(2) . . ? 
C4D P1D NiD 114.3(2) . . ? 
C6D P1D NiD 115.6(2) . . ? 
C3D O1D NiD 114.9(3) . . ? 
C3D O2D NiF 122.4(4) . 2_765 ? 
C2D C1D NiD 110.5(4) . . ? 
C1D C2D C3D 113.0(5) . . ? 
O2D C3D O1D 124.0(5) . . ? 
O2D C3D C2D 120.4(5) . . ? 
O1D C3D C2D 115.6(5) . . ? 
C5D C4D P1D 117.2(5) . . ? 
C7D C6D P1D 112.5(4) . . ? 
C9D C8D P1D 112.9(4) . . ? 
C1E NiE O1E 85.56(19) . . ? 
C1E NiE O2F 167.0(2) . . ? 
O1E NiE O2F 86.48(15) . . ? 
C1E NiE P1E 89.58(17) . . ? 
O1E NiE P1E 169.23(12) . . ? 
O2F NiE P1E 99.92(12) . . ? 
C8E P1E C6E 98.6(4) . . ? 
C8E P1E C4E 106.6(5) . . ? 
C6E P1E C4E 103.0(3) . . ? 
C8E P1E NiE 111.8(3) . . ? 
C6E P1E NiE 119.2(2) . . ? 
C4E P1E NiE 115.6(2) . . ? 
C3E O1E NiE 115.2(3) . . ? 
C3E O2E NiD 123.8(3) . . ? 
C2E C1E NiE 106.1(3) . . ? 
C3E C2E C1E 109.2(4) . . ? 
O2E C3E O1E 124.3(5) . . ? 
O2E C3E C2E 119.8(5) . . ? 
O1E C3E C2E 115.8(5) . . ? 
C5E C4E P1E 116.9(5) . . ? 
C7E C6E P1E 115.4(4) . . ? 
C9EA C8E C9E 46.7(9) . . ? 
C9EA C8E P1E 129.5(10) . . ? 
C9E C8E P1E 126.1(9) . . ? 
C1F NiF O1F 85.4(2) . . ? 
C1F NiF O2D 171.7(2) . 2_765 ? 
O1F NiF O2D 86.52(17) . 2_765 ? 
C1F NiF P1F 89.89(17) . . ? 
O1F NiF P1F 168.75(11) . . ? 
O2D NiF P1F 98.39(14) 2_765 . ? 
C4F P1F C6F 104.5(3) . . ? 
C4F P1F C8F 104.2(3) . . ? 
C6F P1F C8F 104.2(3) . . ? 
C4F P1F NiF 114.3(2) . . ? 
C6F P1F NiF 117.0(2) . . ? 
C8F P1F NiF 111.4(2) . . ? 
C3F O1F NiF 113.1(3) . . ? 
C3F O2F NiE 123.1(4) . . ? 
C2F C1F NiF 105.0(4) . . ? 
C3F C2F C1F 109.3(4) . . ? 
O2F C3F O1F 123.4(5) . . ? 
O2F C3F C2F 120.7(5) . . ? 
O1F C3F C2F 115.8(4) . . ? 
C5F C4F P1F 118.2(5) . . ? 
C7F C6F P1F 112.0(4) . . ? 
C9F C8F P1F 113.2(5) . . ? 
O1DM C1DM N1DM 125.9(13) . . ? 
C2DM N1DM C1DM 121.2(11) . . ? 
O2DM C3DM N2DM 123.4(12) . . ? 
C3DM N2DM C4DM 111.3(10) . . ? 
 
_diffrn_measured_fraction_theta_max    0.973 
_diffrn_reflns_theta_full              27.46 
_diffrn_measured_fraction_theta_full   0.973 
_refine_diff_density_max    1.341 
_refine_diff_density_min   -0.677 
_refine_diff_density_rms    0.116 
 
#===== END

data_FO1448 
 
_audit_creation_method            SHELXL-97 
_chemical_name_systematic 
; 
 ? 
; 
_chemical_name_common             ? 
_chemical_melting_point           ? 
_chemical_formula_moiety          ? 
_chemical_formula_sum             'C28 H48 N Ni O3 P *1/2 C5 H5 N' 
_chemical_formula_weight          575.90 
 
loop_ 
 _atom_type_symbol 
 _atom_type_description 
 _atom_type_scat_dispersion_real 
 _atom_type_scat_dispersion_imag 
 _atom_type_scat_source 
 'C'  'C'   0.0033   0.0016 
 'International Tables Vol C Tables 4.2.6.8 and 6.1.1.4' 
 'H'  'H'   0.0000   0.0000 
 'International Tables Vol C Tables 4.2.6.8 and 6.1.1.4' 
 'N'  'N'   0.0061   0.0033 
 'International Tables Vol C Tables 4.2.6.8 and 6.1.1.4' 
 'O'  'O'   0.0106   0.0060 
 'International Tables Vol C Tables 4.2.6.8 and 6.1.1.4' 
 'P'  'P'   0.1023   0.0942 
 'International Tables Vol C Tables 4.2.6.8 and 6.1.1.4' 
 'Ni'  'Ni'   0.3393   1.1124 
 'International Tables Vol C Tables 4.2.6.8 and 6.1.1.4' 
 
_symmetry_cell_setting            triclinic 
_symmetry_space_group_name_H-M    P-1
 
loop_ 
 _symmetry_equiv_pos_as_xyz 
 'x, y, z' 
 '-x, -y, -z' 
 
_cell_length_a                    9.3259(4) 
_cell_length_b                    12.5108(7) 
_cell_length_c                    13.5807(8) 
_cell_angle_alpha                 88.669(3) 
_cell_angle_beta                  87.244(3) 
_cell_angle_gamma                 70.259(3) 
_cell_volume                      1489.6(1) 
_cell_formula_units_Z             2 
_cell_measurement_temperature     183(2) 
_cell_measurement_reflns_used     ? 
_cell_measurement_theta_min       ? 
_cell_measurement_theta_max       ? 
 
_exptl_crystal_description        prism 
_exptl_crystal_colour             yellow
_exptl_crystal_size_max           0.12 
_exptl_crystal_size_mid           0.12 
_exptl_crystal_size_min           0.10 
_exptl_crystal_density_meas       ? 
_exptl_crystal_density_diffrn     1.284 
_exptl_crystal_density_method     'not measured' 
_exptl_crystal_F_000              622 
_exptl_absorpt_coefficient_mu     0.737 
_exptl_absorpt_correction_type    NONE 
_exptl_absorpt_correction_T_min   ? 
_exptl_absorpt_correction_T_max   ? 
_exptl_absorpt_process_details    ? 
 
_exptl_special_details 
; 
 ? 
; 
 
_diffrn_ambient_temperature       183(2) 
_diffrn_radiation_wavelength      0.71073 
_diffrn_radiation_type            MoK\a 
_diffrn_radiation_source          'fine-focus sealed tube' 
_diffrn_radiation_monochromator   graphite 
_diffrn_measurement_device_type   KappaCCD 
_diffrn_measurement_method        phi- + omega-scan
_diffrn_detector_area_resol_mean  ? 
_diffrn_standards_number          ? 
_diffrn_standards_interval_count  ? 
_diffrn_standards_interval_time   ? 
_diffrn_standards_decay_%         ? 
_diffrn_reflns_number             10440 
_diffrn_reflns_av_R_equivalents   0.0678 
_diffrn_reflns_av_sigmaI/netI     0.0747 
_diffrn_reflns_limit_h_min        -10 
_diffrn_reflns_limit_h_max        12 
_diffrn_reflns_limit_k_min        -15 
_diffrn_reflns_limit_k_max        16 
_diffrn_reflns_limit_l_min        -17 
_diffrn_reflns_limit_l_max        16 
_diffrn_reflns_theta_min          1.73 
_diffrn_reflns_theta_max          27.54 
_reflns_number_total              6694 
_reflns_number_gt                 5330 
_reflns_threshold_expression      >2sigma(I) 
 
_computing_data_collection        COLLECT
_computing_cell_refinement        DENZO
_computing_data_reduction         DENZO
_computing_structure_solution     'SHELXS-97 (Sheldrick, 1990)' 
_computing_structure_refinement   'SHELXL-97 (Sheldrick, 1997)' 
_computing_molecular_graphics     SHELXTL/PC
_computing_publication_material   SHELXL-97
 
_refine_special_details 
; 
 Refinement of F^2^ against ALL reflections.  The weighted R-factor wR and 
 goodness of fit S are based on F^2^, conventional R-factors R are based 
 on F, with F set to zero for negative F^2^. The threshold expression of 
 F^2^ > 2sigma(F^2^) is used only for calculating R-factors(gt) etc. and is 
 not relevant to the choice of reflections for refinement.  R-factors based 
 on F^2^ are statistically about twice as large as those based on F, and R- 
 factors based on ALL data will be even larger. 
; 
 
_refine_ls_structure_factor_coef  Fsqd  
_refine_ls_matrix_type            full 
_refine_ls_weighting_scheme       calc  
_refine_ls_weighting_details 
 'calc w=1/[\s^2^(Fo^2^)+(0.0895P)^2^+0.0000P] where P=(Fo^2^+2Fc^2^)/3' 
_atom_sites_solution_primary      direct 
_atom_sites_solution_secondary    difmap 
_atom_sites_solution_hydrogens    geom/difmap 
_refine_ls_hydrogen_treatment     mixed 
_refine_ls_extinction_method      none 
_refine_ls_extinction_coef        ? 
_refine_ls_number_reflns          6694 
_refine_ls_number_parameters      328 
_refine_ls_number_restraints      0 
_refine_ls_R_factor_all           0.0650 
_refine_ls_R_factor_gt            0.0523 
_refine_ls_wR_factor_ref          0.1534 
_refine_ls_wR_factor_gt           0.1476 
_refine_ls_goodness_of_fit_ref    1.079 
_refine_ls_restrained_S_all       1.079 
_refine_ls_shift/su_max           0.001 
_refine_ls_shift/su_mean          0.000 
 
loop_ 
 _atom_site_label 
 _atom_site_type_symbol 
 _atom_site_fract_x 
 _atom_site_fract_y 
 _atom_site_fract_z 
 _atom_site_U_iso_or_equiv 
 _atom_site_adp_type 
 _atom_site_occupancy 
 _atom_site_symmetry_multiplicity 
 _atom_site_calc_flag 
 _atom_site_refinement_flags 
 _atom_site_disorder_assembly 
 _atom_site_disorder_group 
Ni Ni 0.65293(3) 0.54409(2) 0.23100(2) 0.02637(12) Uani 1 1 d . . . 
P P 0.48662(6) 0.69529(5) 0.29611(5) 0.02524(16) Uani 1 1 d . . . 
O1 O 0.8271(2) 0.41572(16) 0.19298(14) 0.0342(4) Uani 1 1 d . . . 
O2 O 1.0259(2) 0.28043(18) 0.25456(16) 0.0461(5) Uani 1 1 d . . . 
N1 N 0.6666(2) 0.59756(17) 0.09248(16) 0.0292(4) Uani 1 1 d . . . 
C1 C 0.6517(3) 0.4560(2) 0.3491(2) 0.0319(5) Uani 1 1 d . . . 
H1A H 0.6096 0.5066 0.4062 0.038 Uiso 1 1 calc R . . 
H1B H 0.5887 0.4072 0.3414 0.038 Uiso 1 1 calc R . . 
C2 C 0.8170(3) 0.3837(2) 0.3644(2) 0.0369(6) Uani 1 1 d . . . 
H2A H 0.8660 0.4260 0.4041 0.044 Uiso 1 1 calc R . . 
H2B H 0.8209 0.3133 0.4007 0.044 Uiso 1 1 calc R . . 
C3 C 0.9014(3) 0.3541(2) 0.2659(2) 0.0334(6) Uani 1 1 d . . . 
C4 C 0.5564(3) 0.6181(2) 0.0280(2) 0.0345(6) Uani 1 1 d . . . 
H4A H 0.4607 0.6137 0.0510 0.041 Uiso 1 1 calc R . . 
C5 C 0.5728(3) 0.6454(3) -0.0702(2) 0.0437(7) Uani 1 1 d . . . 
H5A H 0.4907 0.6589 -0.1129 0.052 Uiso 1 1 calc R . . 
C6 C 0.7110(3) 0.6525(3) -0.1051(2) 0.0433(7) Uani 1 1 d . . . 
H6A H 0.7255 0.6724 -0.1718 0.052 Uiso 1 1 calc R . . 
C7 C 0.8280(3) 0.6299(2) -0.0401(2) 0.0413(7) Uani 1 1 d . . . 
H7A H 0.9246 0.6338 -0.0616 0.050 Uiso 1 1 calc R . . 
C8 C 0.8020(3) 0.6018(2) 0.0564(2) 0.0357(6) Uani 1 1 d . . . 
H8A H 0.8839 0.5844 0.0998 0.043 Uiso 1 1 calc R . . 
C9 C 0.2861(3) 0.6984(2) 0.30502(18) 0.0281(5) Uani 1 1 d . . . 
H9A H 0.2225 0.7721 0.3358 0.034 Uiso 1 1 calc R . . 
C10 C 0.2649(3) 0.6019(2) 0.3695(2) 0.0337(6) Uani 1 1 d . . . 
H10A H 0.3292 0.5279 0.3415 0.040 Uiso 1 1 calc R . . 
H10B H 0.2989 0.6071 0.4367 0.040 Uiso 1 1 calc R . . 
C11 C 0.0993(3) 0.6076(2) 0.3758(2) 0.0340(6) Uani 1 1 d . . . 
H11A H 0.0365 0.6783 0.4097 0.041 Uiso 1 1 calc R . . 
H11B H 0.0903 0.5425 0.4153 0.041 Uiso 1 1 calc R . . 
C12 C 0.0387(3) 0.6053(2) 0.2738(2) 0.0372(6) Uani 1 1 d . . . 
H12A H 0.0946 0.5315 0.2421 0.045 Uiso 1 1 calc R . . 
H12B H -0.0706 0.6133 0.2801 0.045 Uiso 1 1 calc R . . 
C13 C 0.0584(3) 0.7010(3) 0.2104(2) 0.0429(7) Uani 1 1 d . . . 
H13A H -0.0043 0.7749 0.2394 0.052 Uiso 1 1 calc R . . 
H13B H 0.0225 0.6969 0.1436 0.052 Uiso 1 1 calc R . . 
C14 C 0.2258(3) 0.6934(3) 0.2029(2) 0.0366(6) Uani 1 1 d . . . 
H14A H 0.2361 0.7568 0.1617 0.044 Uiso 1 1 calc R . . 
H14B H 0.2875 0.6213 0.1706 0.044 Uiso 1 1 calc R . . 
C15 C 0.5232(3) 0.7236(2) 0.42482(18) 0.0268(5) Uani 1 1 d . . . 
H15A H 0.4928 0.6671 0.4664 0.032 Uiso 1 1 calc R . . 
C16 C 0.4278(3) 0.8400(2) 0.4671(2) 0.0326(5) Uani 1 1 d . . . 
H16A H 0.4559 0.9002 0.4310 0.039 Uiso 1 1 calc R . . 
H16B H 0.3184 0.8536 0.4579 0.039 Uiso 1 1 calc R . . 
C17 C 0.4539(3) 0.8459(2) 0.5766(2) 0.0381(6) Uani 1 1 d . . . 
H17A H 0.3946 0.9227 0.6014 0.046 Uiso 1 1 calc R . . 
H17B H 0.4167 0.7905 0.6135 0.046 Uiso 1 1 calc R . . 
C18 C 0.6223(3) 0.8203(2) 0.5952(2) 0.0383(6) Uani 1 1 d . . . 
H18A H 0.6362 0.8203 0.6670 0.046 Uiso 1 1 calc R . . 
H18B H 0.6569 0.8803 0.5643 0.046 Uiso 1 1 calc R . . 
C19 C 0.7185(3) 0.7049(2) 0.5527(2) 0.0342(6) Uani 1 1 d . . . 
H19A H 0.8276 0.6922 0.5621 0.041 Uiso 1 1 calc R . . 
H19B H 0.6913 0.6443 0.5887 0.041 Uiso 1 1 calc R . . 
C20 C 0.6933(3) 0.6984(2) 0.44308(19) 0.0300(5) Uani 1 1 d . . . 
H20A H 0.7530 0.6215 0.4185 0.036 Uiso 1 1 calc R . . 
H20B H 0.7299 0.7539 0.4061 0.036 Uiso 1 1 calc R . . 
C21 C 0.4788(3) 0.8210(2) 0.21840(19) 0.0296(5) Uani 1 1 d . . . 
H21A H 0.4694 0.7976 0.1498 0.036 Uiso 1 1 calc R . . 
C22 C 0.6318(3) 0.8425(2) 0.2157(2) 0.0323(5) Uani 1 1 d . . . 
H22A H 0.6434 0.8759 0.2790 0.039 Uiso 1 1 calc R . . 
H22B H 0.7166 0.7696 0.2071 0.039 Uiso 1 1 calc R . . 
C23 C 0.6393(3) 0.9231(2) 0.1312(2) 0.0393(6) Uani 1 1 d . . . 
H23A H 0.6356 0.8872 0.0676 0.047 Uiso 1 1 calc R . . 
H23B H 0.7369 0.9382 0.1318 0.047 Uiso 1 1 calc R . . 
C24 C 0.5066(3) 1.0347(2) 0.1410(2) 0.0406(6) Uani 1 1 d . . . 
H24A H 0.5091 1.0832 0.0828 0.049 Uiso 1 1 calc R . . 
H24B H 0.5188 1.0750 0.2002 0.049 Uiso 1 1 calc R . . 
C25 C 0.3517(3) 1.0170(2) 0.1495(2) 0.0390(6) Uani 1 1 d . . . 
H25A H 0.3321 0.9874 0.0864 0.047 Uiso 1 1 calc R . . 
H25B H 0.2703 1.0908 0.1622 0.047 Uiso 1 1 calc R . . 
C26 C 0.3469(3) 0.9332(2) 0.2332(2) 0.0338(6) Uani 1 1 d . . . 
H26A H 0.3547 0.9663 0.2974 0.041 Uiso 1 1 calc R . . 
H26B H 0.2486 0.9189 0.2341 0.041 Uiso 1 1 calc R . . 
O3 O 0.8097(3) 0.2968(2) 0.0304(2) 0.0683(8) Uani 1 1 d . . . 
C27 C 0.8770(8) 0.1202(6) 0.1176(5) 0.124(2) Uiso 1 1 d . . . 
H27A H 0.9499 0.0426 0.1197 0.186 Uiso 1 1 calc R . . 
H27B H 0.7743 0.1177 0.1096 0.186 Uiso 1 1 calc R . . 
H27C H 0.8789 0.1589 0.1791 0.186 Uiso 1 1 calc R . . 
C28 C 0.9163(6) 0.1788(5) 0.0386(5) 0.1021(17) Uiso 1 1 d . . . 
H28A H 0.9172 0.1380 -0.0232 0.123 Uiso 1 1 calc R . . 
H28B H 1.0206 0.1802 0.0465 0.123 Uiso 1 1 calc R . . 
C31 C 0.0675(4) 1.0761(3) 0.5332(4) 0.0773(12) Uani 0.50 1 d P . . 
H31A H 0.1140 1.1271 0.5561 0.093 Uiso 0.50 1 calc PR . . 
N2 N 0.0675(4) 1.0761(3) 0.5332(4) 0.0773(12) Uani 0.50 1 d P . . 
C29 C 0.0324(4) 1.0750(3) 0.4369(4) 0.0723(13) Uani 1 1 d . . . 
H29B H 0.0534 1.1274 0.3916 0.087 Uiso 1 1 calc R . . 
C30 C 0.0320(4) 0.9996(4) 0.5955(3) 0.0751(12) Uani 1 1 d . . . 
H30B H 0.0532 0.9988 0.6633 0.090 Uiso 1 1 calc R . . 
H1O3 H 0.826(5) 0.329(4) 0.083(3) 0.080(14) Uiso 1 1 d . . . 
 
loop_ 
 _atom_site_aniso_label 
 _atom_site_aniso_U_11 
 _atom_site_aniso_U_22 
 _atom_site_aniso_U_33 
 _atom_site_aniso_U_23 
 _atom_site_aniso_U_13 
 _atom_site_aniso_U_12 
Ni 0.02978(18) 0.02519(19) 0.02355(19) 0.00081(13) -0.00139(12) -0.00852(13) 
P 0.0269(3) 0.0251(3) 0.0242(3) 0.0014(2) -0.0023(2) -0.0094(2) 
O1 0.0373(9) 0.0316(10) 0.0283(10) 0.0024(8) -0.0002(7) -0.0048(8) 
O2 0.0419(10) 0.0420(12) 0.0430(13) 0.0062(10) 0.0005(9) -0.0002(9) 
N1 0.0341(10) 0.0257(11) 0.0269(11) 0.0008(8) -0.0019(8) -0.0089(8) 
C1 0.0371(12) 0.0252(12) 0.0305(14) 0.0041(10) 0.0006(10) -0.0075(10) 
C2 0.0415(14) 0.0313(14) 0.0311(15) 0.0061(11) -0.0038(11) -0.0035(11) 
C3 0.0330(12) 0.0286(13) 0.0364(15) 0.0004(11) -0.0005(10) -0.0076(11) 
C4 0.0351(12) 0.0383(15) 0.0301(14) -0.0001(11) -0.0018(10) -0.0121(11) 
C5 0.0470(15) 0.0507(18) 0.0295(15) 0.0019(13) -0.0069(12) -0.0107(13) 
C6 0.0572(17) 0.0409(16) 0.0268(15) 0.0044(12) 0.0063(12) -0.0114(13) 
C7 0.0443(15) 0.0377(15) 0.0407(17) 0.0022(13) 0.0097(12) -0.0137(12) 
C8 0.0362(13) 0.0364(14) 0.0346(15) -0.0005(11) -0.0005(11) -0.0127(11) 
C9 0.0254(10) 0.0309(13) 0.0274(13) 0.0023(10) -0.0020(9) -0.0087(9) 
C10 0.0325(12) 0.0373(14) 0.0327(14) 0.0054(11) -0.0006(10) -0.0139(11) 
C11 0.0336(12) 0.0376(14) 0.0324(15) 0.0031(11) 0.0016(10) -0.0145(11) 
C12 0.0329(12) 0.0466(16) 0.0372(16) -0.0039(12) 0.0006(11) -0.0200(12) 
C13 0.0373(14) 0.061(2) 0.0367(16) 0.0088(14) -0.0120(11) -0.0244(14) 
C14 0.0354(13) 0.0521(17) 0.0288(14) 0.0047(12) -0.0045(10) -0.0232(12) 
C15 0.0284(11) 0.0265(12) 0.0243(12) -0.0002(10) -0.0021(9) -0.0078(9) 
C16 0.0318(12) 0.0318(14) 0.0300(14) -0.0036(11) -0.0041(10) -0.0046(10) 
C17 0.0398(13) 0.0393(15) 0.0315(15) -0.0076(12) 0.0001(11) -0.0083(12) 
C18 0.0458(14) 0.0380(15) 0.0306(15) -0.0042(12) -0.0074(11) -0.0123(12) 
C19 0.0374(13) 0.0330(14) 0.0315(14) 0.0009(11) -0.0089(10) -0.0101(11) 
C20 0.0301(11) 0.0293(13) 0.0304(14) -0.0004(10) -0.0036(10) -0.0093(10) 
C21 0.0320(12) 0.0305(13) 0.0273(13) 0.0016(10) -0.0025(9) -0.0118(10) 
C22 0.0330(12) 0.0313(13) 0.0333(15) 0.0028(11) 0.0006(10) -0.0123(10) 
C23 0.0436(14) 0.0370(15) 0.0386(16) 0.0044(12) 0.0037(12) -0.0162(12) 
C24 0.0529(16) 0.0326(14) 0.0377(17) 0.0090(12) 0.0000(12) -0.0172(13) 
C25 0.0436(14) 0.0294(14) 0.0388(16) 0.0063(12) -0.0051(12) -0.0054(11) 
C26 0.0357(12) 0.0271(13) 0.0356(15) 0.0034(11) -0.0009(10) -0.0068(10) 
O3 0.0859(18) 0.0622(17) 0.0481(16) -0.0123(13) -0.0272(13) -0.0095(14) 
C31 0.063(2) 0.053(2) 0.107(4) -0.003(2) 0.019(2) -0.0111(17) 
N2 0.063(2) 0.053(2) 0.107(4) -0.003(2) 0.019(2) -0.0111(17) 
C29 0.053(2) 0.046(2) 0.101(4) 0.024(2) 0.020(2) 0.0013(16) 
C30 0.0469(19) 0.090(3) 0.064(3) 0.006(2) 0.0087(17) 0.007(2) 
 
_geom_special_details 
; 
 All esds (except the esd in the dihedral angle between two l.s. planes) 
 are estimated using the full covariance matrix.  The cell esds are taken 
 into account individually in the estimation of esds in distances, angles 
 and torsion angles; correlations between esds in cell parameters are only 
 used when they are defined by crystal symmetry.  An approximate (isotropic) 
 treatment of cell esds is used for estimating esds involving l.s. planes. 
; 
 
loop_ 
 _geom_bond_atom_site_label_1 
 _geom_bond_atom_site_label_2 
 _geom_bond_distance 
 _geom_bond_site_symmetry_2 
 _geom_bond_publ_flag 
Ni O1 1.9183(18) . ? 
Ni C1 1.927(3) . ? 
Ni N1 1.995(2) . ? 
Ni P 2.1747(7) . ? 
P C9 1.855(2) . ? 
P C21 1.856(3) . ? 
P C15 1.861(2) . ? 
O1 C3 1.313(3) . ? 
O2 C3 1.220(3) . ? 
N1 C4 1.337(3) . ? 
N1 C8 1.350(3) . ? 
C1 C2 1.522(3) . ? 
C2 C3 1.507(4) . ? 
C4 C5 1.383(4) . ? 
C5 C6 1.382(4) . ? 
C6 C7 1.386(4) . ? 
C7 C8 1.380(4) . ? 
C9 C14 1.532(4) . ? 
C9 C10 1.536(3) . ? 
C10 C11 1.521(3) . ? 
C11 C12 1.525(4) . ? 
C12 C13 1.515(4) . ? 
C13 C14 1.530(3) . ? 
C15 C16 1.535(3) . ? 
C15 C20 1.541(3) . ? 
C16 C17 1.526(4) . ? 
C17 C18 1.525(4) . ? 
C18 C19 1.528(4) . ? 
C19 C20 1.527(4) . ? 
C21 C26 1.532(4) . ? 
C21 C22 1.537(3) . ? 
C22 C23 1.524(4) . ? 
C23 C24 1.525(4) . ? 
C24 C25 1.532(4) . ? 
C25 C26 1.538(4) . ? 
O3 C28 1.481(6) . ? 
C27 C28 1.390(8) . ? 
C31 C29 1.365(6) . ? 
C31 C30 1.374(6) . ? 
C29 C30 1.360(7) 2_576 ? 
C30 C29 1.360(7) 2_576 ? 
 
loop_ 
 _geom_angle_atom_site_label_1 
 _geom_angle_atom_site_label_2 
 _geom_angle_atom_site_label_3 
 _geom_angle 
 _geom_angle_site_symmetry_1 
 _geom_angle_site_symmetry_3 
 _geom_angle_publ_flag 
O1 Ni C1 83.74(9) . . ? 
O1 Ni N1 85.29(8) . . ? 
C1 Ni N1 165.60(10) . . ? 
O1 Ni P 168.14(6) . . ? 
C1 Ni P 92.05(8) . . ? 
N1 Ni P 100.47(6) . . ? 
C9 P C21 103.89(11) . . ? 
C9 P C15 103.11(11) . . ? 
C21 P C15 108.71(11) . . ? 
C9 P Ni 116.24(8) . . ? 
C21 P Ni 109.47(8) . . ? 
C15 P Ni 114.64(8) . . ? 
C3 O1 Ni 115.54(17) . . ? 
C4 N1 C8 116.2(2) . . ? 
C4 N1 Ni 125.02(17) . . ? 
C8 N1 Ni 118.35(18) . . ? 
C2 C1 Ni 106.26(17) . . ? 
C3 C2 C1 109.7(2) . . ? 
O2 C3 O1 123.2(3) . . ? 
O2 C3 C2 123.7(3) . . ? 
O1 C3 C2 113.1(2) . . ? 
N1 C4 C5 124.1(2) . . ? 
C6 C5 C4 118.8(3) . . ? 
C5 C6 C7 118.3(3) . . ? 
C8 C7 C6 119.0(3) . . ? 
N1 C8 C7 123.6(3) . . ? 
C14 C9 C10 109.0(2) . . ? 
C14 C9 P 111.36(17) . . ? 
C10 C9 P 112.82(17) . . ? 
C11 C10 C9 111.4(2) . . ? 
C10 C11 C12 111.6(2) . . ? 
C13 C12 C11 110.2(2) . . ? 
C12 C13 C14 110.7(2) . . ? 
C13 C14 C9 111.1(2) . . ? 
C16 C15 C20 110.17(19) . . ? 
C16 C15 P 116.54(17) . . ? 
C20 C15 P 113.47(17) . . ? 
C17 C16 C15 111.0(2) . . ? 
C18 C17 C16 111.4(2) . . ? 
C17 C18 C19 110.8(2) . . ? 
C20 C19 C18 111.4(2) . . ? 
C19 C20 C15 111.0(2) . . ? 
C26 C21 C22 110.0(2) . . ? 
C26 C21 P 120.19(18) . . ? 
C22 C21 P 111.16(17) . . ? 
C23 C22 C21 110.5(2) . . ? 
C22 C23 C24 110.5(2) . . ? 
C23 C24 C25 112.5(2) . . ? 
C24 C25 C26 111.3(2) . . ? 
C21 C26 C25 110.0(2) . . ? 
C27 C28 O3 112.4(5) . . ? 
C29 C31 C30 116.7(4) . . ? 
C30 C29 C31 121.3(4) 2_576 . ? 
C29 C30 C31 122.1(5) 2_576 . ? 
 
_diffrn_measured_fraction_theta_max    0.974 
_diffrn_reflns_theta_full              27.54 
_diffrn_measured_fraction_theta_full   0.974 
_refine_diff_density_max    1.286 
_refine_diff_density_min   -0.797 
_refine_diff_density_rms    0.080 

