#------------------------------------------------------------------------------
#$Date$
#$Revision$
#$URL$
#------------------------------------------------------------------------------
#
# This file is available in the Crystallography Open Database (COD),
# http://www.crystallography.net/
#
# All data on this site have been placed in the public domain by the
# contributors.
#
data_1516218
loop_
_publ_author_name
'Migliorati, Valentina'
'Ballirano, Paolo'
'Gontrani, Lorenzo'
'Russina, Olga'
'Caminiti, Ruggero'
_publ_section_title
;
 Crystal polymorphism of propylammonium chloride and structural properties
 of its mixture with water.
;
_journal_issue                   41
_journal_name_full               'The journal of physical chemistry. B'
_journal_page_first              11805
_journal_page_last               11815
_journal_paper_doi               10.1021/jp206831d
_journal_volume                  115
_journal_year                    2011
_chemical_formula_sum            'C3 Cl N'
_chemical_formula_weight         85.49
_chemical_name_systematic        ' ?'
_space_group_IT_number           129
_symmetry_cell_setting           tetragonal
_symmetry_space_group_name_Hall  '-P 4a 2a'
_symmetry_space_group_name_H-M   'P 4/n m m :2'
_audit_creation_date             2011-07-21T08:56
_audit_creation_method           'from EXP file using GSAS2CIF'
_audit_update_record
' 2011-07-21T08:56  Initial CIF as created by GSAS2CIF'
_cell_angle_alpha                90.0
_cell_angle_beta                 90.0
_cell_angle_gamma                90.0
_cell_formula_units_Z            2
_cell_length_a                   6.26428(7)
_cell_length_b                   6.26428
_cell_length_c                   7.40545(18)
_cell_volume                     290.599(8)
_computing_structure_refinement  GSAS
_diffrn_radiation_probe          x-ray
_exptl_absorpt_correction_T_max  0.81792
_exptl_absorpt_correction_T_min  0.81483
_exptl_absorpt_process_details
;   GSAS Absorption/surface roughness correction: function number 0
 Debye-Scherrer absorption correction
Term (= MU.r/wave) =     0.78580E-01
Correction is not refined.
;
_pd_block_id                     2011-07-21T08:56|75|paolo|Bruker_AXS_D8_Advance
_pd_calc_method                  'Rietveld Refinement'
_pd_instr_location               ' ?'
_pd_meas_2theta_range_inc        0.022
_pd_meas_2theta_range_max        89.988
_pd_meas_2theta_range_min        3.0
_pd_meas_number_of_points        3955
_pd_phase_name                   'Propylammonium chloride'
_pd_proc_2theta_range_inc        0.022
_pd_proc_2theta_range_max        89.988
_pd_proc_2theta_range_min        3.0
_pd_proc_info_datetime           2011-07-21T08:56:34
_pd_proc_info_excluded_regions   ' ?'
_pd_proc_ls_background_function
;   GSAS Background function number 1 with 30 terms.
 Shifted Chebyshev function of 1st kind
      1:    519.268     2:   -344.625     3:    39.3191     4:    78.8322    
      5:   -74.5679     6:   -1.34734     7:    69.6401     8:   -77.1526    
      9:    35.4129    10:    11.5876    11:   -29.9537    12:    24.5858    
     13:   -5.41327    14:   -9.13174    15:    2.88875    16:    1.33169    
     17:   -2.58259    18:  -0.542636    19:   0.510875    20:   0.819351    
     21:   -4.60911    22:    2.87934    23:  -0.115660    24:   -2.17617    
     25:    3.75302    26:   -1.72763    27:   -1.82737    28:    2.99684    
     29:   -2.56698    30:   0.366455    
;
_pd_proc_ls_peak_cutoff          0.00100
_pd_proc_ls_profile_function
;
 CW Profile function number 3 with  19 terms
 Pseudovoigt profile coefficients as parameterized in
 P. Thompson, D.E. Cox & J.B. Hastings (1987). J. Appl. Cryst.,20,79-83.
 Asymmetry correction of L.W. Finger, D.E. Cox & A. P. Jephcoat (1994).
 J. Appl. Cryst.,27,892-900.
 Peak tails are ignored  where the intensity is below 0.0010 times the peak
   Aniso. broadening axis   0.0   1.0   0.0
;
_pd_proc_ls_prof_R_factor        0.0442
_pd_proc_ls_prof_wR_expected     0.0408
_pd_proc_ls_prof_wR_factor       0.0582
_pd_proc_number_of_points        3955
_pd_spec_mounting                ' ?'
_refine_ls_goodness_of_fit_all   1.44
_refine_ls_matrix_type           full
_refine_ls_number_parameters     47
_refine_ls_number_restraints     8
_refine_ls_R_Fsqd_factor         0.14670
_refine_ls_shift/su_max          0.10
_refine_ls_shift/su_mean         0.01
_reflns_d_resolution_high        1.095
_reflns_d_resolution_low         7.405
_reflns_limit_h_max              5
_reflns_limit_h_min              0
_reflns_limit_k_max              4
_reflns_limit_k_min              0
_reflns_limit_l_max              6
_reflns_limit_l_min              0
_reflns_number_total             174
_cod_data_source_file            348K.cif
_cod_data_source_block           75_publ
_cod_depositor_comments
;
The following automatic conversions were performed:

'_geom_bond_publ_flag' value 'N' changed to 'n' according to
/usr/data/users/saulius/automatic-downloads/retrospective/ACS/lib/dictionaries/cif_core.dic
dictionary named 'cif_core.dic' version 2.4.2 from 2011-04-26 (24
times).

'_geom_angle_publ_flag' value 'N' changed to 'n' according
to
/usr/data/users/saulius/automatic-downloads/retrospective/ACS/lib/dictionaries/cif_core.dic
dictionary named 'cif_core.dic' version 2.4.2 from 2011-04-26 (68
times).

Automatic conversion script
Id: cif_fix_values 2281 2013-09-26 08:29:07Z andrius 
;
_cod_original_cell_volume        290.599(10)
_cod_original_sg_symbol_H-M      'p 4/n m m'
_cod_original_formula_sum        'C3.00 Cl N'
_cod_database_code               1516218
#BEGIN Tags that were not found in dictionaries:
_gsas_exptl_extinct_corr_t_min   1.00000
_gsas_exptl_extinct_corr_t_max   1.00000
#END Tags that were not found in dictionaries
loop_
_symmetry_equiv_pos_site_id
_symmetry_equiv_pos_as_xyz
1 +x,+y,+z
2 -y+1/2,+x,+z
3 -x+1/2,-y+1/2,+z
4 +y,-x+1/2,+z
5 -x+1/2,+y,+z
6 -y+1/2,-x+1/2,+z
7 +x,-y+1/2,+z
8 +y,+x,+z
-1 -x,-y,-z
-2 +y+1/2,-x,-z
-3 +x+1/2,+y+1/2,-z
-4 -y,+x+1/2,-z
-5 +x+1/2,-y,-z
-6 +y+1/2,+x+1/2,-z
-7 -x,+y+1/2,-z
-8 -y,-x,-z
loop_
_atom_site_type_symbol
_atom_site_label
_atom_site_fract_x
_atom_site_fract_y
_atom_site_fract_z
_atom_site_occupancy
_atom_site_thermal_displace_type
_atom_site_U_iso_or_equiv
_atom_site_symmetry_multiplicity
Cl CL1 0.25 -0.25 0.0 1.0 Uiso 0.1152(9) 2
C C(1) 0.25 0.3331(6) 0.29406(33) 0.25 Uiso 0.0684(16) 8
N N 0.25 0.25 0.10872(28) 1.0 Uiso 0.0684(16) 2
C C(2) 0.25 0.1494(5) 0.43255(28) 0.25 Uiso 0.0684(16) 8
C C(3) 0.25 0.25 0.6244(4) 1.0 Uiso 0.0684(16) 2
loop_
_atom_type_symbol
_atom_type_number_in_cell
_atom_type_scat_dispersion_real
_atom_type_scat_dispersion_imag
_atom_type_scat_Cromer_Mann_a1
_atom_type_scat_Cromer_Mann_a2
_atom_type_scat_Cromer_Mann_a3
_atom_type_scat_Cromer_Mann_a4
_atom_type_scat_Cromer_Mann_b1
_atom_type_scat_Cromer_Mann_b2
_atom_type_scat_Cromer_Mann_b3
_atom_type_scat_Cromer_Mann_b4
_atom_type_scat_Cromer_Mann_c
_atom_type_scat_source
Cl 2.0 0.000 0.000 11.4604 0.01040 7.19640 1.16620 6.25560 18.5194 1.64550
47.7784 -9.5574 International_Tables_Vol_C
C 6.0 0.000 0.000 2.31000 20.8439 1.02000 10.2075 1.58860 0.56870 0.86500
51.6512 0.21560 International_Tables_Vol_C
N 2.0 0.000 0.000 12.2126 0.00570 3.13220 9.89330 2.01250 28.9975 1.16630
0.58260 -11.529 International_Tables_Vol_C
loop_
_diffrn_radiation_wavelength
_diffrn_radiation_wavelength_wt
_diffrn_radiation_type
_diffrn_radiation_wavelength_id
1.540598 1.000 K\a~1~ 1
1.544390 0.500 K\a~2~ 2
loop_
_geom_angle_atom_site_label_1
_geom_angle_atom_site_label_2
_geom_angle_atom_site_label_3
_geom_angle
_geom_angle_site_symmetry_1
_geom_angle_site_symmetry_3
_geom_angle_publ_flag
C(1) C(1) C(1) 45.0 2_555 3_555 n
C(1) C(1) C(1) 90.0 2_555 4_555 n
C(1) C(1) N 75.48(10) 2_555 1_555 n
C(1) C(1) C(2) 58.14(8) 2_555 1_555 n
C(1) C(1) C(2) 93.39(15) 2_555 2_555 n
C(1) C(1) C(2) 94.31(19) 2_555 3_555 n
C(1) C(1) C(2) 51.65(15) 2_555 4_555 n
C(1) C(1) C(1) 45.0 3_555 4_555 n
C(1) C(1) N 69.23(14) 3_555 1_555 n
C(1) C(1) C(2) 41.71(15) 3_555 1_555 n
C(1) C(1) C(2) 66.61(16) 3_555 2_555 n
C(1) C(1) C(2) 96.10(27) 3_555 3_555 n
C(1) C(1) C(2) 66.61(16) 3_555 4_555 n
C(1) C(1) N 75.48(10) 4_555 1_555 n
C(1) C(1) C(2) 58.14(8) 4_555 1_555 n
C(1) C(1) C(2) 51.65(15) 4_555 2_555 n
C(1) C(1) C(2) 94.31(19) 4_555 3_555 n
C(1) C(1) C(2) 93.39(15) 4_555 4_555 n
N C(1) C(2) 110.94(25) 1_555 1_555 n
N C(1) C(2) 126.19(24) 1_555 2_555 n
N C(1) C(2) 165.3(4) 1_555 3_555 n
N C(1) C(2) 126.19(24) 1_555 4_555 n
C(2) C(1) C(2) 35.25(17) 1_555 2_555 n
C(2) C(1) C(2) 54.40(31) 1_555 3_555 n
C(2) C(1) C(2) 35.25(17) 1_555 4_555 n
C(2) C(1) C(2) 42.66(23) 2_555 3_555 n
C(2) C(1) C(2) 57.44(29) 2_555 4_555 n
C(2) C(1) C(2) 42.66(23) 3_555 4_555 n
C(1) N C(1) 29.05(19) 1_555 2_555 n
C(1) N C(1) 41.54(28) 1_555 3_555 n
C(1) N C(1) 29.05(19) 1_555 4_555 n
C(1) N C(1) 29.05(19) 2_555 3_555 n
C(1) N C(1) 41.54(28) 2_555 4_555 n
C(1) N C(1) 29.05(19) 3_555 4_555 n
C(1) C(2) C(1) 28.47(18) 1_555 2_555 n
C(1) C(2) C(1) 42.19(32) 1_555 3_555 n
C(1) C(2) C(1) 28.47(18) 1_555 4_555 n
C(1) C(2) C(2) 58.14(8) 1_555 2_555 n
C(1) C(2) C(2) 41.71(15) 1_555 3_555 n
C(1) C(2) C(2) 58.14(8) 1_555 4_555 n
C(1) C(2) C(3) 107.79(23) 1_555 1_555 n
C(1) C(2) C(1) 34.04(25) 2_555 3_555 n
C(1) C(2) C(1) 46.77(31) 2_555 4_555 n
C(1) C(2) C(2) 86.61(15) 2_555 2_555 n
C(1) C(2) C(2) 61.28(14) 2_555 3_555 n
C(1) C(2) C(2) 51.65(15) 2_555 4_555 n
C(1) C(2) C(3) 121.33(23) 2_555 1_555 n
C(1) C(2) C(1) 34.04(25) 3_555 4_555 n
C(1) C(2) C(2) 85.69(19) 3_555 2_555 n
C(1) C(2) C(2) 83.90(27) 3_555 3_555 n
C(1) C(2) C(2) 85.69(19) 3_555 4_555 n
C(1) C(2) C(3) 150.0(4) 3_555 1_555 n
C(1) C(2) C(2) 51.65(15) 4_555 2_555 n
C(1) C(2) C(2) 61.28(14) 4_555 3_555 n
C(1) C(2) C(2) 86.61(15) 4_555 4_555 n
C(1) C(2) C(3) 121.33(23) 4_555 1_555 n
C(2) C(2) C(2) 45.0 2_555 3_555 n
C(2) C(2) C(2) 90.0 2_555 4_555 n
C(2) C(2) C(3) 73.34(8) 2_555 1_555 n
C(2) C(2) C(2) 45.0 3_555 4_555 n
C(2) C(2) C(3) 66.08(12) 3_555 1_555 n
C(2) C(2) C(3) 73.34(8) 4_555 1_555 n
C(2) C(3) C(2) 33.32(17) 1_555 2_555 n
C(2) C(3) C(2) 47.84(25) 1_555 3_555 n
C(2) C(3) C(2) 33.32(17) 1_555 4_555 n
C(2) C(3) C(2) 33.32(17) 2_555 3_555 n
C(2) C(3) C(2) 47.84(25) 2_555 4_555 n
C(2) C(3) C(2) 33.32(17) 3_555 4_555 n
loop_
_geom_bond_atom_site_label_1
_geom_bond_atom_site_label_2
_geom_bond_distance
_geom_bond_site_symmetry_2
_geom_bond_publ_flag
C(1) C(1) 0.736(5) 2_555 n
C(1) C(1) 1.041(7) 3_555 n
C(1) C(1) 0.736(5) 4_555 n
C(1) N 1.4679(33) 1_555 n
C(1) C(2) 1.542(4) 1_555 n
C(1) C(2) 1.3116(33) 2_555 n
C(1) C(2) 1.0315(32) 3_555 n
C(1) C(2) 1.3116(33) 4_555 n
N C(1) 1.4679(33) 1_555 n
N C(1) 1.4679(33) 2_555 n
N C(1) 1.4679(33) 3_555 n
N C(1) 1.4679(33) 4_555 n
C(2) C(1) 1.542(4) 1_555 n
C(2) C(1) 1.3116(33) 2_555 n
C(2) C(1) 1.0315(32) 3_555 n
C(2) C(1) 1.3116(33) 4_555 n
C(2) C(2) 0.891(5) 2_555 n
C(2) C(2) 1.261(7) 3_555 n
C(2) C(2) 0.891(5) 4_555 n
C(2) C(3) 1.5544(34) 1_555 n
C(3) C(2) 1.5544(34) 1_555 n
C(3) C(2) 1.5544(34) 2_555 n
C(3) C(2) 1.5544(34) 3_555 n
C(3) C(2) 1.5544(34) 4_555 n
loop_
_pd_meas_counts_total
_pd_proc_ls_weight
_pd_proc_intensity_bkg_calc
_pd_calc_intensity_total
21381.0 0.0 -29586954.00000 .
20398.0 0.0 -28856378.00000 .
19813.0 0.0 -28142654.00000 .
19118.0 0.0 -27445384.00000 .
18395.0 0.0 -26764234.00000 .
17893.0 0.0 -26098850.00000 .
17299.0 0.0 -25448910.00000 .
16645.0 0.0 -24814064.00000 .
15824.0 0.0 -24193982.00000 .
15691.0 0.0 -23588364.00000 .
15137.0 0.0 -22996880.00000 .
14635.0 0.0 -22419216.00000 .
13992.0 0.0 -21855086.00000 .
13494.0 0.0 -21304202.00000 .
13267.0 0.0 -20766242.00000 .
12807.0 0.0 -20240954.00000 .
12587.0 0.0 -19728040.00000 .
11939.0 0.0 -19227264.00000 .
11766.0 0.0 -18738320.00000 .
11429.0 0.0 -18260962.00000 .
11060.0 0.0 -17794932.00000 .
10827.0 0.0 -17339980.00000 .
10585.0 0.0 -16895870.00000 .
10165.0 0.0 -16462347.00000 .
9775.0 0.0 -16039187.00000 .
9533.0 0.0 -15626163.00000 .
9387.0 0.0 -15223028.00000 .
9101.0 0.0 -14829585.00000 .
8908.0 0.0 -14445612.00000 .
8808.0 0.0 -14070893.00000 .
8516.0 0.0 -13705222.00000 .
8265.0 0.0 -13348388.00000 .
7867.0 0.0 -13000210.00000 .
7894.0 0.0 -12660481.00000 .
7614.0 0.0 -12329012.00000 .
7564.0 0.0 -12005620.00000 .
7398.0 0.0 -11690114.00000 .
7040.0 0.0 -11382322.00000 .
7185.0 0.0 -11082069.00000 .
6845.0 0.0 -10789181.00000 .
6672.0 0.0 -10503485.00000 .
6467.0 0.0 -10224828.00000 .
6330.0 0.0 -9953044.00000 .
6270.0 0.0 -9687974.00000 .
6088.0 0.0 -9429471.00000 .
6130.0 0.0 -9177373.00000 .
5937.0 0.0 -8931543.00000 .
5863.0 0.0 -8691830.00000 .
5841.0 0.0 -8458091.00000 .
5683.0 0.0 -8230194.00000 .
5534.0 0.0 -8008004.00000 .
5526.0 0.0 -7791378.00000 .
5377.0 0.0 -7580197.50000 .
5186.0 0.0 -7374339.00000 .
5120.0 0.0 -7173666.50000 .
5165.0 0.0 -6978059.00000 .
5160.0 0.0 -6787404.00000 .
5067.0 0.0 -6601593.00000 .
4970.0 0.0 -6420491.50000 .
4947.0 0.0 -6244005.50000 .
4796.0 0.0 -6072018.50000 .
4805.0 0.0 -5904430.50000 .
4648.0 0.0 -5741130.00000 .
4686.0 0.0 -5582018.50000 .
4559.0 0.0 -5426997.50000 .
4558.0 0.0 -5275971.00000 .
4458.0 0.0 -5128838.00000 .
4373.0 0.0 -4985510.50000 .
4389.0 0.0 -4845894.00000 .
4344.0 0.0 -4709906.50000 .
4174.0 0.0 -4577448.00000 .
4085.0 0.0 -4448444.00000 .
4260.0 0.0 -4322809.50000 .
4060.0 0.0 -4200465.50000 .
4100.0 0.0 -4081326.75000 .
3966.0 0.0 -3965315.50000 .
3934.0 0.0 -3852359.00000 .
3897.0 0.0 -3742382.50000 .
3712.0 0.0 -3635310.00000 .
3738.0 0.0 -3531075.25000 .
3694.0 0.0 -3429606.75000 .
3691.0 0.0 -3330835.50000 .
3672.0 0.0 -3234698.25000 .
3672.0 0.0 -3141126.00000 .
3603.0 0.0 -3050058.50000 .
3467.0 0.0 -2961433.75000 .
3515.0 0.0 -2875188.00000 .
3435.0 0.0 -2791268.25000 .
3432.0 0.0 -2709612.00000 .
3457.0 0.0 -2630163.25000 .
3237.0 0.0 -2552866.50000 .
3233.0 0.0 -2477668.25000 .
3337.0 0.0 -2404520.00000 .
3206.0 0.0 -2333366.75000 .
3285.0 0.0 -2264156.75000 .
3311.0 0.0 -2196841.75000 .
3234.0 0.0 -2131377.75000 .
3088.0 0.0 -2067711.50000 .
3227.0 0.0 -2005802.87500 .
3087.0 0.0 -1945606.75000 .
3023.0 0.0 -1887075.25000 .
3114.0 0.0 -1830169.62500 .
3094.0 0.0 -1774844.37500 .
3010.0 0.0 -1721065.50000 .
2922.0 0.0 -1668791.37500 .
2799.0 0.0 -1617976.00000 .
2856.0 0.0 -1568590.62500 .
2928.0 0.0 -1520592.00000 .
2821.0 0.0 -1473948.62500 .
2693.0 0.0 -1428624.87500 .
2775.0 0.0 -1384583.25000 .
2754.0 0.0 -1341794.37500 .
2770.0 0.0 -1300220.75000 .
2813.0 0.0 -1259834.50000 .
2722.0 0.0 -1220605.62500 .
2732.0 0.0 -1182497.37500 .
2643.0 0.0 -1145486.75000 .
2655.0 0.0 -1109539.87500 .
2584.0 0.0 -1074632.50000 .
2646.0 0.0 -1040736.68750 .
2709.0 0.0 -1007820.68750 .
2624.0 0.0 -975864.25000 .
2600.0 0.0 -944838.37500 .
2517.0 0.0 -914719.31250 .
2484.0 0.0 -885483.81250 .
2518.0 0.0 -857104.75000 .
2490.0 0.0 -829563.00000 .
2405.0 0.0 -802832.25000 .
2461.0 0.0 -776892.87500 .
2426.0 0.0 -751724.62500 .
2369.0 0.0 -727302.50000 .
2402.0 0.0 -703610.06250 .
2406.0 0.0 -680623.93750 .
2294.0 0.0 -658327.37500 .
2297.0 0.0 -636701.87500 .
2272.0 0.0 -615725.93750 .
2314.0 0.0 -595384.31250 .
2294.0 0.0 -575657.56250 .
2326.0 0.0 -556530.12500 .
2197.0 0.0 -537985.87500 .
2217.0 0.0 -520006.03125 .
2240.0 0.0 -502577.09375 .
2264.0 0.0 -485681.34375 .
2233.0 0.0 -469306.12500 .
2255.0 0.0 -453437.09375 .
2176.0 0.0 -438057.21875 .
2212.0 0.0 -423155.62500 .
2083.0 0.0 -408716.18750 .
2103.0 0.0 -394727.15625 .
2130.0 0.0 -381176.56250 .
2069.0 0.0 -368049.43750 .
2092.0 0.0 -355336.06250 .
2091.0 0.0 -343022.53125 .
2004.0 0.0 -331099.12500 .
2042.0 0.0 -319554.12500 .
2014.0 0.0 -308375.18750 .
1972.0 0.0 -297553.15625 .
1960.0 0.0 -287076.84375 .
1953.0 0.0 -276937.09375 .
1953.0 0.0 -267123.65625 .
2061.0 0.0 -257626.25000 .
1945.0 0.0 -248436.53125 .
1945.0 0.0 -239544.64063 .
1904.0 0.0 -230942.15625 .
1895.0 0.0 -222621.26563 .
1907.0 0.0 -214571.89063 .
1900.0 0.0 -206787.48438 .
1843.0 0.0 -199259.01563 .
1816.0 0.0 -191979.35938 .
1861.0 0.0 -184941.53125 .
1757.0 0.0 -178137.26563 .
1807.0 0.0 -171560.06250 .
1774.0 0.0 -165202.64063 .
1768.0 0.0 -159058.78125 .
1729.0 0.0 -153122.04688 .
1790.0 0.0 -147385.35938 .
1725.0 0.0 -141843.18750 .
1718.0 0.0 -136489.40625 .
1771.0 0.0 -131318.09375 .
1777.0 0.0 -126324.12500 .
1657.0 0.0 -121501.02344 .
1750.0 0.0 -116844.42969 .
1691.0 0.0 -112348.37500 .
1674.0 0.0 -108008.33594 .
1710.0 0.0 -103819.50781 .
1753.0 0.0 -99776.49219 .
1588.0 0.0 -95875.38281 .
1602.0 0.0 -92111.03906 .
1541.0 0.0 -88479.67188 .
1583.0 0.0 -84976.87500 .
1603.0 0.0 -81598.21094 .
1548.0 0.0 -78340.04688 .
1574.0 0.0 -75198.28906 .
1583.0 0.0 -72169.42188 .
1633.0 0.0 -69249.75781 .
1580.0 0.0 -66435.35938 .
1479.0 0.0 -63723.20703 .
1578.0 0.0 -61109.63672 .
1564.0 0.0 -58591.68750 .
1545.0 0.0 -56166.26953 .
1524.0 0.0 -53829.89844 .
1503.0 0.0 -51580.00391 .
1517.0 0.0 -49413.46484 .
1470.0 0.0 -47327.59375 .
1460.0 0.0 -45319.85156 .
1557.0 0.0 -43387.30078 .
1433.0 0.0 -41527.66406 .
1448.0 0.0 -39738.26172 .
1441.0 0.0 -38016.85156 .
1451.0 0.0 -36361.14453 .
1509.0 0.0 -34768.64844 .
1473.0 0.0 -33237.45313 .
1397.0 0.0 -31765.30469 .
1421.0 0.0 -30350.19141 .
1345.0 0.0 -28990.19531 .
1402.0 0.0 -27683.25977 .
1370.0 0.0 -26427.66602 .
1362.0 0.0 -25221.45703 .
1388.0 0.0 -24063.01563 .
1388.0 0.0 -22950.68750 .
1278.0 0.0 -21882.66016 .
1340.0 0.0 -20857.50977 .
1330.0 0.0 -19873.59766 .
1240.0 0.0 -18929.49805 .
1342.0 0.0 -18023.77539 .
1288.0 0.0 -17154.99609 .
1277.0 0.0 -16321.85352 .
1232.0 0.0 -15522.98145 .
1245.0 0.0 -14757.20117 .
1303.0 0.0 -14023.32715 .
1268.0 0.0 -13320.01367 .
1339.0 0.0 -12646.28711 .
1170.0 0.0 -12000.94434 .
1189.0 0.0 -11382.95801 .
1147.0 0.0 -10791.34668 .
1186.0 0.0 -10224.99512 .
1129.0 0.0 -9683.05273 .
1189.0 0.0 -9164.50586 .
1120.0 0.0 -8668.53809 .
1093.0 0.0 -8194.23730 .
1161.0 0.0 -7740.75781 .
1069.0 0.0 -7307.32227 .
1138.0 0.0 -6893.08496 .
1108.0 0.0 -6497.36426 .
1111.0 0.0 -6119.42871 .
1056.0 0.0 -5758.50195 .
1110.0 0.0 -5413.98291 .
1109.0 0.0 -5085.17529 .
1130.0 0.0 -4771.45947 .
1073.0 0.0 -4472.23584 .
1037.0 0.0 -4186.89990 .
1080.0 0.0 -3914.90479 .
1049.0 0.0 -3655.67065 .
1135.0 0.0 -3408.70850 .
1060.0 0.0 -3173.50220 .
1054.0 0.0 -2949.54199 .
1114.0 0.0 -2736.37427 .
1028.0 0.0 -2533.53760 .
1031.0 0.0 -2340.60327 .
1001.0 0.0 -2157.16113 .
960.0 0.0 -1982.76733 .
996.0 0.0 -1817.07031 .
1007.0 0.0 -1659.67407 .
1018.0 0.0 -1510.22070 .
1010.0 0.0 -1368.37439 .
986.0 0.0 -1233.78613 .
1029.0 0.0 -1106.14355 .
1042.0 0.0 -985.12640 .
1052.0 0.0 -870.45300 .
992.0 0.0 -761.83276 .
998.0 0.0 -658.98297 .
1034.0 0.0 -561.64563 .
986.0 0.0 -469.56845 .
983.0 0.0 -382.50888 .
1010.0 0.0 -300.23904 .
946.0 0.0 -222.51883 .
978.0 0.0 -149.14951 .
988.0 0.0 -79.91542 .
932.0 0.0 -14.62240 .
981.0 0.0 46.91864 .
980.0 0.0 104.89074 .
993.0 0.0 159.46689 .
928.0 0.0 210.81839 .
950.0 0.0 259.09958 .
900.0 0.0 304.46173 .
951.0 0.0 347.06027 .
967.0 0.0 387.02679 .
998.0 0.0 424.50116 .
939.0 0.0 459.60913 .
960.0 0.0 492.47092 .
941.0 0.0 523.21112 .
949.0 0.0 551.93469 .
912.0 0.0 578.75311 .
953.0 0.0 603.76703 .
893.0 0.0 627.07343 .
943.0 0.0 648.76691 .
917.0 0.0 668.93512 .
941.0 0.0 687.66504 .
929.0 0.0 705.03503 .
933.0 0.0 721.12195 .
937.0 0.0 736.00201 .
922.0 0.0 749.74231 .
912.0 0.0 762.41101 .
912.0 0.0 774.07068 .
915.0 0.0 784.78143 .
848.0 0.0 794.60101 .
945.0 0.0 803.58313 .
855.0 0.0 811.78040 .
830.0 0.0 819.24060 .
875.0 0.0 826.01080 .
901.0 0.0 832.13544 .
893.0 0.0 837.65594 .
883.0 0.0 842.61230 .
902.0 0.0 847.04150 .
901.0 0.0 850.97894 .
893.0 0.0 854.45911 .
889.0 0.0 857.51276 .
813.0 0.0 860.17035 .
872.0 0.001147 862.46002 862.45917
881.0 0.001135 864.40845 864.40753
870.0 0.001149 866.04089 866.03992
876.0 0.001142 867.38098 867.37994
915.0 0.001093 868.45105 868.45007
838.0 0.001193 869.27203 869.27100
937.0 0.001067 869.86371 869.86267
851.0 0.001175 870.24457 870.24353
863.0 0.001159 870.43201 870.43097
870.0 0.001149 870.44226 870.44122
851.0 0.001175 870.29053 870.28955
852.0 0.001174 869.99121 869.99017
920.0 0.001087 869.55756 869.55658
867.0 0.001153 869.00201 869.00104
907.0 0.001103 868.33618 868.33521
843.0 0.001186 867.57086 867.56995
815.0 0.001227 866.71619 866.71527
871.0 0.001148 865.78137 865.78046
800.0 0.001250 864.77509 864.77417
781.0 0.001280 863.70538 863.70453
886.0 0.001129 862.57965 862.57880
803.0 0.001245 861.40485 861.40399
825.0 0.001212 860.18707 860.18622
892.0 0.001121 858.93207 858.93127
866.0 0.001155 857.64545 857.64465
884.0 0.001131 856.33173 856.33099
818.0 0.001222 854.99573 854.99493
887.0 0.001127 853.64117 853.64044
816.0 0.001225 852.27179 852.27106
867.0 0.001153 850.89099 850.89020
832.0 0.001202 849.50159 849.50085
803.0 0.001245 848.10645 848.10571
849.0 0.001178 846.70795 846.70715
864.0 0.001157 845.30798 845.30725
842.0 0.001188 843.90869 843.90796
836.0 0.001196 842.51166 842.51093
858.0 0.001166 841.11835 841.11761
945.0 0.001058 839.72986 839.72913
818.0 0.001222 838.34729 838.34650
830.0 0.001205 836.97174 836.97095
829.0 0.001206 835.60352 835.60272
842.0 0.001188 834.24365 834.24280
859.0 0.001164 832.89233 832.89148
840.0 0.001190 831.54993 831.54907
872.0 0.001147 830.21667 830.21582
798.0 0.001253 828.89270 828.89185
842.0 0.001188 827.57813 827.57727
862.0 0.001160 826.27289 826.27197
840.0 0.001190 824.97668 827.87036
856.0 0.001168 823.68958 826.72968
868.0 0.001152 822.41119 827.09674
780.0 0.001282 821.14136 826.07397
827.0 0.001209 819.87964 825.07947
872.0 0.001147 818.62567 824.11505
786.0 0.001272 817.37921 823.18311
860.0 0.001163 816.13959 822.28583
821.0 0.001218 814.90674 821.42657
832.0 0.001202 813.67993 820.60864
824.0 0.001214 812.45868 819.83618
823.0 0.001215 811.24268 819.11407
827.0 0.001209 810.03137 818.44818
796.0 0.001256 808.82434 817.84558
791.0 0.001264 807.62109 817.31451
781.0 0.001280 806.42102 816.86505
767.0 0.001304 805.22394 816.50970
890.0 0.001124 804.02924 816.26337
850.0 0.001176 802.83649 816.14453
835.0 0.001198 801.64532 816.17639
784.0 0.001276 800.45532 816.38751
861.0 0.001161 799.26617 816.81415
845.0 0.001183 798.07733 817.50287
859.0 0.001164 796.88867 818.51385
910.0 0.001099 795.69983 819.92633
839.0 0.001192 794.51038 821.84589
835.0 0.001198 793.32013 824.41663
868.0 0.001152 792.12891 827.84003
820.0 0.001220 790.93640 832.40631
926.0 0.001080 789.74249 838.57135
906.0 0.001104 788.54681 847.20282
979.0 0.001021 787.34949 860.40192
912.0 0.001096 786.15015 883.51508
950.0 0.001053 784.94885 928.05457
1092.0 0.000916 783.74554 1012.95447
1163.0 0.000860 782.53998 1160.36365
1349.0 0.000741 781.33240 1390.45410
1620.0 0.000617 780.12256 1724.21680
2009.0 0.000498 778.91064 2200.52832
2739.0 0.000365 777.69666 2887.12207
3674.0 0.0002722 776.48059 3826.90649
4849.0 0.0002062 775.26270 4866.79785
5485.0 0.0001823 774.04291 5506.66309
5036.0 0.0001986 772.82153 5166.62598
3881.0 0.0002577 771.59851 3967.58057
2545.0 0.000393 770.37421 2617.75854
1510.0 0.000662 769.14880 1670.41443
1060.0 0.000943 767.92224 1189.78918
919.0 0.001088 766.69513 992.24304
815.0 0.001227 765.46747 913.30688
818.0 0.001222 764.23956 874.45599
791.0 0.001264 763.01172 849.89935
766.0 0.001305 761.78412 832.26508
827.0 0.001209 760.55719 818.90149
870.0 0.001149 759.33118 808.43024
780.0 0.001282 758.10632 799.99957
760.0 0.001316 756.88312 793.05145
784.0 0.001276 755.66174 787.20569
756.0 0.001323 754.44275 782.19775
787.0 0.001271 753.22626 777.83765
727.0 0.001376 752.01276 773.98694
750.0 0.001333 750.80267 770.54279
835.0 0.001198 749.59613 767.42688
740.0 0.001351 748.39386 764.58014
712.0 0.001404 747.19604 761.95563
763.0 0.001311 746.00305 759.51685
777.0 0.001287 744.81525 757.23492
732.0 0.001366 743.63312 755.08643
705.0 0.001418 742.45703 753.05286
753.0 0.001328 741.28735 751.11859
792.0 0.001263 740.12439 749.27100
743.0 0.001346 738.96875 747.49994
739.0 0.001353 737.82062 745.79651
754.0 0.001326 736.68042 744.15363
785.0 0.001274 735.54865 742.56525
823.0 0.001215 734.42548 741.02625
715.0 0.001399 733.31146 739.53217
760.0 0.001316 732.20685 738.07953
676.0 0.001479 731.11212 736.66516
759.0 0.001318 730.02753 735.28644
707.0 0.001414 728.95343 733.94092
738.0 0.001355 727.89020 732.62677
718.0 0.001393 726.83820 731.34235
792.0 0.001263 725.79773 727.28528
671.0 0.001490 724.76917 726.18573
744.0 0.001344 723.75262 723.75208
745.0 0.001342 722.74866 722.74817
727.0 0.001376 721.75745 721.75690
721.0 0.001387 720.77924 720.77875
698.0 0.001433 719.81445 719.81396
700.0 0.001429 718.86316 718.86273
749.0 0.001335 717.92578 717.92535
720.0 0.001389 717.00244 717.00201
732.0 0.001366 716.09351 716.09308
692.0 0.001445 715.19916 715.19873
753.0 0.001328 714.31952 714.31909
716.0 0.001397 713.45490 713.45447
735.0 0.001361 712.60547 712.60504
727.0 0.001376 711.77142 711.77100
724.0 0.001381 710.95294 710.95251
739.0 0.001353 710.15002 710.14960
716.0 0.001397 709.36304 709.36261
736.0 0.001359 708.59198 708.59161
706.0 0.001416 707.83716 707.83673
766.0 0.001305 707.09851 707.09808
739.0 0.001353 706.37622 706.37579
738.0 0.001355 705.67035 705.66992
684.0 0.001462 704.98096 704.98053
734.0 0.001362 704.30817 704.30774
716.0 0.001397 703.65210 703.65167
759.0 0.001318 703.01263 703.01221
728.0 0.001374 702.38995 702.38953
651.0 0.001536 701.78406 701.78363
723.0 0.001383 701.19495 701.19452
697.0 0.001435 700.62262 700.62219
676.0 0.001479 700.06708 700.06665
683.0 0.001464 699.52838 699.52795
721.0 0.001387 699.00641 699.00592
729.0 0.001372 698.50116 698.50067
721.0 0.001387 698.01263 698.01215
715.0 0.001399 697.54071 697.54022
704.0 0.001420 697.08539 697.08490
699.0 0.001431 696.64661 696.64606
676.0 0.001479 696.22418 696.22369
723.0 0.001383 695.81818 695.81769
709.0 0.001410 695.42841 695.42786
744.0 0.001344 695.05481 695.05426
674.0 0.001484 694.69727 694.69672
686.0 0.001458 694.35559 694.35504
681.0 0.001468 694.02979 694.02917
682.0 0.001466 693.71960 693.71906
668.0 0.001497 693.42499 693.42444
731.0 0.001368 693.14575 693.14514
670.0 0.001493 692.88177 692.88110
701.0 0.001427 692.63287 692.63220
700.0 0.001429 692.39886 692.39819
673.0 0.001486 692.17957 692.17889
726.0 0.001377 691.97491 691.97418
692.0 0.001445 691.78461 691.78387
714.0 0.001401 691.60852 691.60779
717.0 0.001395 691.44647 691.44574
675.0 0.001481 691.29822 691.29742
732.0 0.001366 691.16357 691.16284
661.0 0.001513 691.04242 691.04163
701.0 0.001427 690.93445 690.93365
640.0 0.001563 690.83954 690.83875
681.0 0.001468 690.75739 690.75659
683.0 0.001464 690.68787 690.68707
725.0 0.001379 690.63074 690.62988
668.0 0.001497 690.58575 690.58490
688.0 0.001453 690.55273 690.55182
668.0 0.001497 690.53143 690.53052
692.0 0.001445 690.52155 690.52069
710.0 0.001408 690.52307 690.52216
696.0 0.001437 690.53558 690.53467
705.0 0.001418 690.55896 690.55804
732.0 0.001366 690.59296 690.59198
722.0 0.001385 690.63727 690.63629
683.0 0.001464 690.69177 690.69080
684.0 0.001462 690.75623 690.75525
699.0 0.001431 690.83038 690.82941
698.0 0.001433 690.91400 690.91302
683.0 0.001464 691.00696 691.00592
684.0 0.001462 691.10889 691.10785
715.0 0.001399 691.21960 691.21857
716.0 0.001397 691.33899 691.33795
697.0 0.001435 691.46674 691.46570
644.0 0.001553 691.60266 691.60162
680.0 0.001471 691.74652 691.74548
699.0 0.001431 691.89819 691.89709
679.0 0.001473 692.05737 692.05627
693.0 0.001443 692.22382 692.22272
677.0 0.001477 692.39752 692.39642
715.0 0.001399 692.57806 692.57697
681.0 0.001468 692.76538 692.76428
691.0 0.001447 692.95923 692.95813
683.0 0.001464 693.15942 693.15833
700.0 0.001429 693.36584 693.36475
673.0 0.001486 693.57825 693.57709
700.0 0.001429 693.79639 693.79523
727.0 0.001376 694.02026 694.01910
687.0 0.001456 694.24951 694.24835
703.0 0.001422 694.48407 694.48291
688.0 0.001453 694.72382 694.72266
721.0 0.001387 694.96851 694.96735
691.0 0.001447 695.21802 695.21686
673.0 0.001486 695.47223 695.47107
711.0 0.001406 695.73096 695.72980
671.0 0.001490 695.99408 695.99292
654.0 0.001529 696.26147 696.26031
690.0 0.001449 696.53302 696.53186
675.0 0.001481 696.80853 696.80731
701.0 0.001427 697.08795 697.08673
690.0 0.001449 697.37103 697.36987
688.0 0.001453 697.65790 697.65674
700.0 0.001429 697.94830 697.94714
650.0 0.001538 698.24213 698.24097
706.0 0.001416 698.53931 698.53815
737.0 0.001357 698.83978 698.83862
711.0 0.001406 699.14343 699.14227
681.0 0.001468 699.45020 699.44904
706.0 0.001416 699.75995 699.75885
700.0 0.001429 700.07275 700.07159
696.0 0.001437 700.38837 700.38727
675.0 0.001481 700.70685 700.70575
706.0 0.001416 701.02814 701.02704
672.0 0.001488 701.35217 701.35107
692.0 0.001445 701.67889 701.67780
691.0 0.001447 702.00830 702.00720
681.0 0.001468 702.34027 702.33923
726.0 0.001377 702.67493 702.67383
742.0 0.001348 703.01208 703.01105
714.0 0.001401 703.35187 703.35083
653.0 0.001531 703.69415 703.69312
691.0 0.001447 704.03900 704.03796
708.0 0.001412 704.38635 704.38538
709.0 0.001410 704.73627 704.73529
686.0 0.001458 705.08881 705.08777
697.0 0.001435 705.44379 705.44281
686.0 0.001458 705.80139 705.80042
687.0 0.001456 706.16156 706.16064
700.0 0.001429 706.52441 706.52344
709.0 0.001410 706.88989 706.88892
718.0 0.001393 707.25800 707.25708
761.0 0.001314 707.62885 707.62793
661.0 0.001513 708.00250 708.00165
725.0 0.001379 708.37897 708.37805
729.0 0.001372 708.75830 708.75745
679.0 0.001473 709.14050 709.13965
680.0 0.001471 709.52570 709.52484
654.0 0.001529 709.91394 709.91315
673.0 0.001486 710.30524 710.30444
660.0 0.001515 710.69977 710.69897
714.0 0.001401 711.09753 711.09680
702.0 0.001425 711.49860 711.49786
718.0 0.001393 711.90308 711.90234
726.0 0.001377 712.31104 712.31030
716.0 0.001397 712.72253 712.72186
709.0 0.001410 713.13770 713.13702
699.0 0.001431 713.55664 713.55597
656.0 0.001524 713.97943 713.97876
728.0 0.001374 714.40613 714.40546
709.0 0.001410 714.83685 714.83624
685.0 0.001460 715.27173 715.27112
711.0 0.001406 715.71082 715.71027
709.0 0.001410 716.15436 716.15375
768.0 0.001302 716.60223 716.60168
721.0 0.001387 717.05475 717.05420
750.0 0.001333 717.51190 717.51141
726.0 0.001377 717.97388 717.97339
701.0 0.001427 718.44073 718.44025
731.0 0.001368 718.91260 718.91211
739.0 0.001353 719.38965 719.38916
750.0 0.001333 719.87195 719.87146
676.0 0.001479 720.35962 720.35913
689.0 0.001451 720.85278 720.85236
706.0 0.001416 721.35156 721.35114
732.0 0.001366 721.85614 721.85571
756.0 0.001323 722.36652 722.36615
669.0 0.001495 722.88293 722.88257
745.0 0.001342 723.40546 723.40509
834.0 0.001199 723.93427 723.93390
759.0 0.001318 724.46942 724.46906
737.0 0.001357 725.01099 725.01068
729.0 0.001372 725.55927 725.55890
771.0 0.001297 726.11420 726.11389
709.0 0.001410 726.67609 726.67578
707.0 0.001414 727.24500 727.24469
777.0 0.001287 727.82098 727.82068
732.0 0.001366 728.40417 728.40393
748.0 0.001337 728.99475 728.99451
747.0 0.001339 729.59283 729.59259
690.0 0.001449 730.19855 730.19836
732.0 0.001366 730.81201 730.81177
728.0 0.001374 731.43323 731.43304
706.0 0.001416 732.06256 732.06232
715.0 0.001399 732.69983 732.69965
745.0 0.001342 733.34540 733.34521
725.0 0.001379 733.99921 733.99908
685.0 0.001460 734.66150 734.66132
732.0 0.001366 735.33228 735.33215
764.0 0.001309 736.01178 736.01166
719.0 0.001391 736.70001 736.69983
731.0 0.001368 737.39709 737.39691
741.0 0.001350 738.10309 738.10297
710.0 0.001408 738.81830 738.81812
703.0 0.001422 739.54254 739.54242
720.0 0.001389 740.27612 740.27600
741.0 0.001350 741.01904 741.01892
748.0 0.001337 741.77136 741.77130
746.0 0.001340 742.53339 742.53326
741.0 0.001350 743.30487 743.30475
749.0 0.001335 744.08624 744.08612
741.0 0.001350 744.87726 744.87714
743.0 0.001346 745.67816 745.67810
765.0 0.001307 746.48907 746.48895
702.0 0.001425 747.31006 747.31000
773.0 0.001294 748.14111 748.14099
775.0 0.001290 748.98230 748.98224
761.0 0.001314 749.83374 749.83362
753.0 0.001328 750.69556 753.39209
756.0 0.001323 751.56763 754.39905
784.0 0.001276 752.45026 756.76270
758.0 0.001319 753.34320 757.87903
748.0 0.001337 754.24677 759.02362
750.0 0.001333 755.16089 760.19873
803.0 0.001245 756.08563 761.40631
784.0 0.001276 757.02106 762.64923
783.0 0.001277 757.96704 763.93011
785.0 0.001274 758.92383 765.25256
742.0 0.001348 759.89142 766.62067
810.0 0.001235 760.86969 768.03864
807.0 0.001239 761.85876 769.51208
798.0 0.001253 762.85870 771.04706
780.0 0.001282 763.86938 772.65125
804.0 0.001244 764.89105 774.33331
792.0 0.001263 765.92352 776.10358
843.0 0.001186 766.96692 777.97504
821.0 0.001218 768.02106 779.96259
832.0 0.001202 769.08612 782.08527
835.0 0.001198 770.16211 784.36615
828.0 0.001208 771.24878 786.83368
804.0 0.001244 772.34650 789.52435
810.0 0.001235 773.45483 792.48358
881.0 0.001135 774.57397 795.77063
791.0 0.001264 775.70404 799.46277
808.0 0.001238 776.84473 803.66132
815.0 0.001227 777.99609 808.50427
847.0 0.001181 779.15814 814.17975
850.0 0.001176 780.33099 820.95343
902.0 0.001109 781.51428 829.20972
871.0 0.001148 782.70807 839.53906
890.0 0.001124 783.91254 852.99463
825.0 0.001212 785.12732 871.94263
897.0 0.001115 786.35242 902.54797
1042.0 0.000960 787.58807 960.10449
1139.0 0.000878 788.83380 1077.11890
1326.0 0.000754 790.08984 1311.30688
1754.0 0.000570 791.35596 1744.64331
2520.0 0.000397 792.63202 2456.40820
3354.0 0.0002982 793.91821 3432.61597
4034.0 0.0002479 795.21417 4437.90918
4840.0 0.0002066 796.51996 5001.12354
4928.0 0.0002029 797.83545 4763.22852
4172.0 0.0002397 799.16071 3929.91113
3107.0 0.0003219 800.49530 2892.59424
2210.0 0.000452 801.83936 1992.36975
1481.0 0.000675 803.19287 1411.41931
1110.0 0.000901 804.55548 1113.00256
953.0 0.001049 805.92725 982.73962
971.0 0.001030 807.30811 927.51294
848.0 0.001179 808.69769 900.07422
856.0 0.001168 810.09619 883.21686
849.0 0.001178 811.50323 871.56946
858.0 0.001166 812.91876 863.16547
865.0 0.001156 814.34290 856.99786
846.0 0.001182 815.77509 852.43903
790.0 0.001266 817.21545 849.06824
818.0 0.001222 818.66394 846.59503
820.0 0.001220 820.12024 844.81232
804.0 0.001244 821.58417 843.57013
769.0 0.001300 823.05573 842.75769
831.0 0.001203 824.53485 842.29120
833.0 0.001200 826.02112 842.10687
824.0 0.001214 827.51459 842.15509
818.0 0.001222 829.01508 842.39673
850.0 0.001176 830.52234 842.80096
782.0 0.001279 832.03638 843.34290
847.0 0.001181 833.55682 844.58350
838.0 0.001193 835.08362 845.37317
813.0 0.001230 836.61670 846.53827
899.0 0.001112 838.15576 847.51068
801.0 0.001248 839.70056 848.55377
877.0 0.001140 841.25128 849.66003
856.0 0.001168 842.80731 850.82288
864.0 0.001157 844.36871 852.03741
830.0 0.001205 845.93530 853.29907
873.0 0.001145 847.50702 854.60455
866.0 0.001155 849.08337 855.95081
803.0 0.001245 850.66437 857.33551
869.0 0.001151 852.24994 858.75720
867.0 0.001153 853.83972 860.21448
894.0 0.001119 855.43365 861.70691
796.0 0.001256 857.03131 860.54474
791.0 0.001264 858.63275 862.23242
851.0 0.001175 860.23779 862.60370
816.0 0.001225 861.84607 864.41278
864.0 0.001157 863.45758 866.25183
867.0 0.001153 865.07196 868.12531
877.0 0.001140 866.68909 870.03949
847.0 0.001181 868.30878 872.00183
836.0 0.001196 869.93085 874.02191
856.0 0.001168 871.55518 876.11255
875.0 0.001143 873.18146 878.28973
884.0 0.001131 874.80945 880.57526
847.0 0.001181 876.43915 882.99847
916.0 0.001092 878.07019 885.59937
886.0 0.001129 879.70251 888.43457
849.0 0.001178 881.33569 891.58563
920.0 0.001087 882.96967 895.17743
874.0 0.001144 884.60443 899.42877
891.0 0.001122 886.23944 904.82068
870.0 0.001149 887.87482 912.60974
947.0 0.001056 889.51001 926.01508
917.0 0.001091 891.14508 952.23798
1037.0 0.000964 892.77972 1004.67896
1143.0 0.000875 894.41394 1102.50122
1371.0 0.000729 896.04724 1261.84033
1672.0 0.000598 897.67957 1473.61023
1890.0 0.000529 899.31073 1679.35217
2254.0 0.000444 900.94067 1779.40588
2266.0 0.000441 902.56891 1717.33252
2026.0 0.000494 904.19550 1548.22241
1599.0 0.000625 905.82001 1342.85364
1275.0 0.000784 907.44238 1162.02808
1087.0 0.000920 909.06250 1042.08252
969.0 0.001032 910.67999 978.74432
931.0 0.001074 912.29492 950.91895
880.0 0.001136 913.90674 939.78491
867.0 0.001153 915.51550 935.04968
870.0 0.001149 917.12097 932.72894
909.0 0.001100 918.72308 931.54663
927.0 0.001079 920.32135 931.05280
854.0 0.001171 921.91583 931.02948
919.0 0.001088 923.50623 931.34235
904.0 0.001106 925.09253 931.90234
936.0 0.001068 926.67432 932.64716
900.0 0.001111 928.25165 933.53296
867.0 0.001153 929.82410 934.52747
915.0 0.001093 931.39160 935.60706
917.0 0.001091 932.95398 936.75372
884.0 0.001131 934.51147 937.95404
852.0 0.001174 936.06299 939.19666
894.0 0.001119 937.60913 940.47357
830.0 0.001205 939.14917 941.77783
898.0 0.001114 940.68341 943.10406
892.0 0.001121 942.21191 944.44836
894.0 0.001119 943.73340 945.80603
872.0 0.001147 945.24896 947.17499
875.0 0.001143 946.75739 948.55194
917.0 0.001091 948.25946 949.93555
872.0 0.001147 949.75470 951.32361
886.0 0.001129 951.24243 952.71423
932.0 0.001073 952.72321 954.10657
876.0 0.001142 954.19629 955.49890
818.0 0.001222 955.66199 956.89081
968.0 0.001033 957.12036 958.28143
959.0 0.001043 958.57037 959.66925
960.0 0.001042 960.01270 961.05414
985.0 0.001015 961.44659 962.43506
902.0 0.001109 962.87244 963.81177
966.0 0.001035 964.29016 964.60919
937.0 0.001067 965.69879 966.00220
939.0 0.001065 967.09924 967.09833
900.0 0.001111 968.49060 968.48969
962.0 0.001040 969.87311 969.87219
979.0 0.001021 971.24683 971.24597
1028.0 0.000973 972.61102 972.61017
977.0 0.001024 973.96625 973.96539
1021.0 0.000979 975.31177 975.31097
1004.0 0.000996 976.64795 976.64709
1002.0 0.000998 977.97479 977.97400
945.0 0.001058 979.29150 979.29077
1012.0 0.000988 980.59857 980.59784
973.0 0.001028 981.89551 981.89478
1044.0 0.000958 983.18256 983.18182
1030.0 0.000971 984.45972 984.45905
962.0 0.001040 985.72614 985.72546
1017.0 0.000983 986.98267 986.98199
1029.0 0.000972 988.22845 988.22778
1025.0 0.000976 989.46381 989.46320
984.0 0.001016 990.68884 990.68823
972.0 0.001029 991.90283 991.90222
1015.0 0.000985 993.10626 993.10571
955.0 0.001047 994.29865 994.29816
974.0 0.001027 995.48029 995.47980
997.0 0.001003 996.65118 996.65070
953.0 0.001049 997.81067 997.81018
991.0 0.001009 998.95917 998.95874
1010.0 0.000990 1000.09631 1000.09589
924.0 0.001082 1001.22229 1001.22192
988.0 0.001012 1002.33728 1002.33691
962.0 0.001040 1003.44043 1003.44006
972.0 0.001029 1004.53247 1004.53217
1009.0 0.000991 1005.61279 1005.61249
975.0 0.001026 1006.68170 1006.68140
1013.0 0.000987 1007.73920 1007.73895
961.0 0.001041 1008.78485 1008.78455
962.0 0.001040 1009.81897 1009.81873
1011.0 0.000989 1010.84125 1010.84100
992.0 0.001008 1011.85187 1011.85168
1017.0 0.000983 1012.85095 1012.85077
962.0 0.001040 1013.83789 1013.83777
986.0 0.001014 1014.81323 1014.81311
1074.0 0.000931 1015.77655 1015.77643
980.0 0.001020 1016.72803 1016.72791
968.0 0.001033 1017.66785 1017.66779
1016.0 0.000984 1018.59540 1018.59534
1022.0 0.000978 1019.51129 1019.51123
976.0 0.001025 1020.41498 1020.41498
1025.0 0.000976 1021.30682 1021.30682
1000.0 0.001000 1022.18683 1022.18689
1027.0 0.000974 1023.05463 1023.05469
1015.0 0.000985 1023.91071 1023.91077
1020.0 0.000980 1024.75452 1024.75464
960.0 0.001042 1025.58643 1025.58655
983.0 0.001017 1026.40662 1026.40674
1022.0 0.000978 1027.21448 1027.21460
1051.0 0.000951 1028.01062 1028.01074
1032.0 0.000969 1028.79456 1028.79480
1006.0 0.000994 1029.56665 1029.56689
1032.0 0.000969 1030.32703 1030.32727
996.0 0.001004 1031.07520 1031.07556
1044.0 0.000958 1031.81165 1031.81189
1076.0 0.000929 1032.53613 1032.53638
1068.0 0.000936 1033.24866 1033.24902
1090.0 0.000917 1033.94958 1033.94995
1129.0 0.000886 1034.63855 1034.63892
1070.0 0.000935 1035.31592 1035.31628
1094.0 0.000914 1035.98120 1035.98157
1074.0 0.000931 1036.63501 1036.63538
1125.0 0.000889 1037.27722 1046.93164
1028.0 0.000973 1037.90759 1048.05103
1054.0 0.000949 1038.52637 1053.85144
1126.0 0.000888 1039.13367 1055.25989
1107.0 0.000903 1039.72937 1056.72144
1063.0 0.000941 1040.31372 1058.24341
1098.0 0.000911 1040.88647 1059.83325
1121.0 0.000892 1041.44800 1061.50146
1106.0 0.000904 1041.99792 1063.25757
1129.0 0.000886 1042.53674 1065.11499
1097.0 0.000912 1043.06445 1067.08801
1127.0 0.000887 1043.58081 1069.19287
1129.0 0.000886 1044.08606 1071.45007
1118.0 0.000894 1044.58020 1073.88171
1150.0 0.000870 1045.06335 1076.51624
1197.0 0.000835 1045.53564 1079.38660
1123.0 0.000890 1045.99695 1082.53003
1175.0 0.000851 1046.44739 1085.99585
1178.0 0.000849 1046.88708 1089.83948
1181.0 0.000847 1047.31616 1094.13245
1196.0 0.000836 1047.73462 1098.96240
1195.0 0.000837 1048.14246 1104.43457
1233.0 0.000811 1048.53979 1110.68835
1161.0 0.000861 1048.92664 1117.89502
1166.0 0.000858 1049.30310 1126.28125
1218.0 0.000821 1049.66943 1136.14197
1201.0 0.000833 1050.02539 1147.86206
1246.0 0.000803 1050.37134 1161.97522
1269.0 0.000788 1050.70715 1180.25891
1273.0 0.000786 1051.03308 1201.68457
1277.0 0.000783 1051.34912 1228.76477
1257.0 0.000796 1051.65515 1264.38062
1408.0 0.000710 1051.95154 1311.94348
1372.0 0.000729 1052.23816 1382.50781
1585.0 0.000631 1052.51538 1504.80200
1981.0 0.000505 1052.78296 1753.13501
2419.0 0.000413 1053.04114 2290.52295
3437.0 0.0002910 1053.29004 3396.79443
5168.0 0.0001935 1053.52954 5380.99170
7829.0 0.0001277 1053.76001 8288.66211
10717.0 0.0000933 1053.98132 11527.84766
13365.0 0.0000748 1054.19360 13821.34082
14212.0 0.0000704 1054.39709 13995.93750
13028.0 0.0000768 1054.59155 12319.70996
9957.0 0.0001004 1054.77747 9782.11426
6851.0 0.0001460 1054.95459 6990.52441
4626.0 0.0002162 1055.12317 4590.12695
2838.0 0.000352 1055.28333 2965.63135
1971.0 0.000507 1055.43506 2066.10620
1441.0 0.000694 1055.57849 1641.14429
1346.0 0.000743 1055.71375 1451.75903
1321.0 0.000757 1055.84070 1357.73914
1214.0 0.000824 1055.95984 1300.56873
1216.0 0.000822 1056.07092 1260.51428
1246.0 0.000803 1056.17407 1230.69348
1151.0 0.000869 1056.26965 1207.96594
1132.0 0.000883 1056.35742 1190.49768
1137.0 0.000880 1056.43762 1177.09094
1129.0 0.000886 1056.51025 1166.98853
1132.0 0.000883 1056.57556 1159.73743
1165.0 0.000858 1056.63354 1155.17993
1173.0 0.000853 1056.68433 1153.58826
1143.0 0.000875 1056.72791 1156.26099
1234.0 0.000810 1056.76440 1167.26526
1236.0 0.000809 1056.79395 1197.10742
1396.0 0.000716 1056.81665 1267.70422
1496.0 0.000668 1056.83264 1412.98499
1780.0 0.000562 1056.84180 1662.75391
2356.0 0.000424 1056.84448 2004.25378
2783.0 0.000359 1056.84058 2347.25415
2674.0 0.000374 1056.83020 2540.54736
2565.0 0.000390 1056.81348 2491.66772
2426.0 0.000412 1056.79053 2273.93921
1959.0 0.000510 1056.76135 1984.20837
1608.0 0.000622 1056.72607 1680.65540
1468.0 0.000681 1056.68481 1430.71680
1281.0 0.000781 1056.63770 1266.55225
1155.0 0.000866 1056.58472 1177.18945
1114.0 0.000898 1056.52588 1134.86865
1120.0 0.000893 1056.46143 1115.20337
1093.0 0.000915 1056.39148 1104.62671
1044.0 0.000958 1056.31592 1097.66357
1128.0 0.000887 1056.23499 1082.89417
1051.0 0.000951 1056.14856 1079.22913
1053.0 0.000950 1056.05701 1076.29822
1094.0 0.000914 1055.96021 1069.22168
1099.0 0.000910 1055.85828 1067.44727
1076.0 0.000929 1055.75134 1065.96545
1022.0 0.000978 1055.63953 1064.71008
1097.0 0.000912 1055.52271 1063.63184
1034.0 0.000967 1055.40100 1062.69385
1022.0 0.000978 1055.27478 1061.86902
1092.0 0.000916 1055.14368 1061.13513
1026.0 0.000975 1055.00806 1060.47583
1074.0 0.000931 1054.86792 1059.87793
1109.0 0.000902 1054.72339 1059.33057
1018.0 0.000982 1054.57446 1058.82568
1035.0 0.000966 1054.42114 1058.35632
1057.0 0.000946 1054.26355 1057.91650
1044.0 0.000958 1054.10193 1057.50195
1064.0 0.000940 1053.93604 1057.10864
1038.0 0.000963 1053.76611 1056.73328
1050.0 0.000952 1053.59216 1056.37329
1065.0 0.000939 1053.41443 1056.02649
988.0 0.001012 1053.23267 1055.69080
1077.0 0.000929 1053.04724 1055.36426
1065.0 0.000939 1052.85791 1055.04590
1027.0 0.000974 1052.66492 1054.73425
1014.0 0.000986 1052.46838 1054.42859
1016.0 0.000984 1052.26831 1054.12769
1008.0 0.000992 1052.06445 1053.83057
954.0 0.001048 1051.85730 1052.46692
1045.0 0.000957 1051.64673 1052.22595
987.0 0.001013 1051.43274 1051.98376
1009.0 0.000991 1051.21545 1051.21472
1049.0 0.000953 1050.99487 1050.99402
971.0 0.001030 1050.77100 1050.77014
1055.0 0.000948 1050.54407 1050.54309
1038.0 0.000963 1050.31396 1050.31299
1057.0 0.000946 1050.08069 1050.07971
1034.0 0.000967 1049.84436 1049.84338
999.0 0.001001 1049.60510 1049.60400
1022.0 0.000978 1049.36279 1049.36169
1066.0 0.000938 1049.11768 1049.11646
993.0 0.001007 1048.86951 1048.86829
985.0 0.001015 1048.61853 1048.61731
1050.0 0.000952 1048.36475 1048.36353
1064.0 0.000940 1048.10815 1048.10681
950.0 0.001053 1047.84888 1047.84753
998.0 0.001002 1047.58679 1047.58533
1081.0 0.000925 1047.32190 1047.32043
995.0 0.001005 1047.05444 1047.05298
990.0 0.001010 1046.78442 1046.78284
1043.0 0.000959 1046.51172 1046.51013
999.0 0.001001 1046.23645 1046.23486
1023.0 0.000978 1045.95850 1045.95691
1019.0 0.000981 1045.67810 1045.67639
1010.0 0.000990 1045.39514 1045.39343
1037.0 0.000964 1045.10974 1045.10791
1051.0 0.000951 1044.82178 1044.81995
994.0 0.001006 1044.53125 1044.52942
1018.0 0.000982 1044.23840 1044.23657
1100.0 0.000909 1043.94312 1043.94116
1098.0 0.000911 1043.64539 1043.64343
1113.0 0.000898 1043.34521 1043.34326
1079.0 0.000927 1043.04260 1043.04053
1101.0 0.000908 1042.73767 1042.73560
1067.0 0.000937 1042.43030 1042.42822
1061.0 0.000943 1042.12073 1042.11853
1008.0 0.000992 1041.80859 1041.80640
1099.0 0.000910 1041.49414 1041.49182
1077.0 0.000929 1041.17737 1041.17505
1032.0 0.000969 1040.85815 1040.85583
1041.0 0.000961 1040.53662 1040.53430
1047.0 0.000955 1040.21277 1040.21033
1071.0 0.000934 1039.88647 1039.88403
1034.0 0.000967 1039.55798 1039.55542
1043.0 0.000959 1039.22705 1039.22449
999.0 0.001001 1038.89380 1038.89111
1007.0 0.000993 1038.55811 1038.55542
1056.0 0.000947 1038.21997 1038.21729
1039.0 0.000962 1037.87952 1037.87683
983.0 0.001017 1037.53674 1037.53394
1045.0 0.000957 1037.19153 1037.18872
1018.0 0.000982 1036.84399 1036.84119
995.0 0.001005 1036.49377 1036.49097
1026.0 0.000975 1036.14136 1036.13855
997.0 0.001003 1035.78638 1035.78345
1048.0 0.000954 1035.42908 1035.42615
948.0 0.001055 1035.06921 1035.06628
1015.0 0.000985 1034.70691 1034.70374
950.0 0.001053 1034.34204 1034.33899
1029.0 0.000972 1033.97461 1033.97156
1051.0 0.000951 1033.60474 1033.60156
1009.0 0.000991 1033.23230 1033.22913
1050.0 0.000952 1032.85718 1032.85388
995.0 0.001005 1032.47949 1032.47620
1035.0 0.000966 1032.09912 1032.09583
1071.0 0.000934 1031.71619 1031.71289
1004.0 0.000996 1031.33069 1031.32727
1059.0 0.000944 1030.94226 1030.93884
983.0 0.001017 1030.55115 1030.54773
983.0 0.001017 1030.15735 1030.15381
1005.0 0.000995 1029.76074 1029.75720
985.0 0.001015 1029.36133 1029.35779
994.0 0.001006 1028.95911 1028.95544
987.0 0.001013 1028.55408 1028.55042
1027.0 0.000974 1028.14600 1028.14233
991.0 0.001009 1027.73511 1027.73132
1030.0 0.000971 1027.32117 1027.31750
967.0 0.001034 1026.90417 1026.90051
966.0 0.001035 1026.48438 1026.48059
1053.0 0.000950 1026.06128 1026.05750
1014.0 0.000986 1025.63525 1025.63147
990.0 0.001010 1025.20618 1025.20227
1069.0 0.000935 1024.77368 1024.76978
1037.0 0.000964 1024.33813 1024.33423
997.0 0.001003 1023.89929 1023.89532
966.0 0.001035 1023.45728 1023.70154
956.0 0.001046 1023.01196 1023.26611
987.0 0.001013 1022.56317 1022.82782
945.0 0.001058 1022.11115 1022.50952
974.0 0.001027 1021.65558 1022.07068
973.0 0.001028 1021.19666 1021.62958
993.0 0.001007 1020.73419 1021.18616
1024.0 0.000977 1020.26807 1020.74023
1051.0 0.000951 1019.79846 1020.29224
979.0 0.001021 1019.32520 1019.84210
1088.0 0.000919 1018.84839 1019.39001
1077.0 0.000929 1018.36780 1018.93604
962.0 0.001040 1017.88342 1018.48029
986.0 0.001014 1017.39539 1018.02307
1027.0 0.000974 1016.90332 1017.56427
1040.0 0.000962 1016.40759 1017.10449
995.0 0.001005 1015.90790 1016.64362
1066.0 0.000938 1015.40417 1016.18219
996.0 0.001004 1014.89655 1015.72058
1015.0 0.000985 1014.38477 1015.25897
1071.0 0.000934 1013.86908 1014.79810
1013.0 0.000987 1013.34918 1014.33844
1026.0 0.000975 1012.82495 1013.88049
1034.0 0.000967 1012.29675 1017.10291
1031.0 0.000970 1011.76416 1016.79822
1043.0 0.000959 1011.22736 1016.50726
1022.0 0.000978 1010.68622 1018.04749
992.0 0.001008 1010.14056 1017.86255
1057.0 0.000946 1009.59070 1017.70337
1003.0 0.000997 1009.03613 1017.57318
1031.0 0.000970 1008.47723 1017.47693
1059.0 0.000944 1007.91376 1017.41974
1021.0 0.000979 1007.34552 1017.40833
1005.0 0.000995 1006.77283 1017.45044
1060.0 0.000943 1006.19531 1017.55591
1024.0 0.000977 1005.61328 1017.73724
1022.0 0.000978 1005.02637 1018.01019
1092.0 0.000916 1004.43445 1018.39508
1040.0 0.000962 1003.83795 1018.91846
1067.0 0.000937 1003.23639 1019.61700
1047.0 0.000955 1002.63007 1020.54059
1021.0 0.000979 1002.01868 1021.76324
1038.0 0.000963 1001.40216 1023.40759
1037.0 0.000964 1000.78070 1025.72986
1084.0 0.000923 1000.15411 1029.40417
1057.0 0.000946 999.52246 1036.25952
1044.0 0.000958 998.88562 1050.70020
1174.0 0.000852 998.24347 1081.12695
1132.0 0.000883 997.59613 1138.67346
1346.0 0.000743 996.94342 1229.74829
1453.0 0.000688 996.28558 1343.41260
1490.0 0.000671 995.62225 1445.31287
1496.0 0.000668 994.95331 1491.61023
1491.0 0.000671 994.27924 1469.58508
1459.0 0.000685 993.59949 1409.25647
1346.0 0.000743 992.91437 1333.57190
1270.0 0.000787 992.22363 1250.24219
1230.0 0.000813 991.52710 1174.26782
1208.0 0.000828 990.82520 1119.37305
1126.0 0.000888 990.11755 1088.11682
1092.0 0.000916 989.40436 1075.49072
1098.0 0.000911 988.68536 1074.50635
1139.0 0.000878 987.96045 1080.20483
1137.0 0.000880 987.22998 1090.47986
1150.0 0.000870 986.49347 1105.26294
1155.0 0.000866 985.75140 1125.92566
1210.0 0.000826 985.00330 1156.18726
1254.0 0.000797 984.24908 1206.34143
1347.0 0.000742 983.48926 1304.57678
1690.0 0.000592 982.72333 1518.13000
2142.0 0.000467 981.95148 1972.37195
2965.0 0.0003373 981.17358 2828.69727
4479.0 0.0002233 980.38947 4169.68799
6353.0 0.0001574 979.59955 5817.86621
7368.0 0.0001357 978.80341 7260.25293
7328.0 0.0001365 978.00122 7868.58203
7537.0 0.0001327 977.19287 7492.04834
7234.0 0.0001382 976.37823 6573.15674
5371.0 0.0001862 975.55762 5429.74170
3763.0 0.0002657 974.73059 4171.82715
3161.0 0.0003164 973.89764 3016.75391
2275.0 0.000440 973.05817 2155.94702
1683.0 0.000594 972.21246 1622.75671
1251.0 0.000799 971.36066 1341.99158
1126.0 0.000888 970.50244 1208.46924
1124.0 0.000890 969.63800 1143.65588
1098.0 0.000911 968.76715 1106.88354
1082.0 0.000924 967.88977 1081.97949
1042.0 0.000960 967.00635 1063.25964
1064.0 0.000940 966.11646 1048.49048
1018.0 0.000982 965.22028 1036.53772
977.0 0.001024 964.31763 1026.67456
1030.0 0.000971 963.40839 1018.40015
1014.0 0.000986 962.49310 1011.35992
990.0 0.001010 961.57111 1005.28619
1003.0 0.000997 960.64301 999.98505
995.0 0.001005 959.70819 995.30499
957.0 0.001045 958.76691 991.13080
933.0 0.001072 957.81946 987.37457
995.0 0.001005 956.86536 983.96344
953.0 0.001049 955.90497 980.84204
973.0 0.001028 954.93811 977.96362
997.0 0.001003 953.96448 975.29089
954.0 0.001048 952.98480 972.54645
925.0 0.001081 951.99847 970.20959
983.0 0.001017 951.00592 968.00214
962.0 0.001040 950.00677 965.78149
996.0 0.001004 949.00098 963.78619
991.0 0.001009 947.98914 961.87549
943.0 0.001060 946.97058 960.03741
948.0 0.001055 945.94580 958.26379
892.0 0.001121 944.91449 956.54626
902.0 0.001109 943.87671 954.87781
1003.0 0.000997 942.83276 953.25342
952.0 0.001050 941.78223 951.66705
983.0 0.001017 940.72546 950.11487
951.0 0.001052 939.66229 948.59259
970.0 0.001031 938.59253 947.09650
895.0 0.001117 937.51672 945.62439
956.0 0.001046 936.43451 944.17279
872.0 0.001147 935.34607 942.73975
943.0 0.001060 934.25128 941.32281
972.0 0.001029 933.14996 939.91992
872.0 0.001147 932.04285 938.53015
912.0 0.001096 930.92914 937.15118
946.0 0.001057 929.80951 935.78217
913.0 0.001095 928.68359 930.75500
918.0 0.001089 927.55127 929.53967
906.0 0.001104 926.41315 928.32324
898.0 0.001114 925.26868 925.26550
958.0 0.001044 924.11835 924.11517
936.0 0.001068 922.96179 922.95868
918.0 0.001089 921.79895 921.79584
932.0 0.001073 920.63049 920.62744
940.0 0.001064 919.45587 919.45282
864.0 0.001157 918.27545 918.27240
896.0 0.001116 917.08905 918.26910
908.0 0.001101 915.89636 917.12311
891.0 0.001122 914.69836 915.97461
931.0 0.001074 913.49420 914.82294
903.0 0.001107 912.28448 914.26788
898.0 0.001114 911.06897 913.13556
899.0 0.001112 909.84747 912.00262
892.0 0.001121 908.62061 910.87006
935.0 0.001070 907.38788 909.73804
879.0 0.001138 906.14978 908.60736
814.0 0.001229 904.90601 907.47876
924.0 0.001082 903.65637 906.35248
893.0 0.001120 902.40167 905.23016
954.0 0.001048 901.14136 904.11230
892.0 0.001121 899.87579 903.00012
881.0 0.001135 898.60480 901.89471
890.0 0.001124 897.32813 900.79736
899.0 0.001112 896.04675 899.71008
900.0 0.001111 894.75977 898.63403
892.0 0.001121 893.46790 897.57190
835.0 0.001198 892.17072 896.52539
910.0 0.001099 890.86835 895.49750
908.0 0.001101 889.56122 894.49152
927.0 0.001079 888.24878 894.64447
900.0 0.001111 886.93182 893.73895
914.0 0.001094 885.60986 892.87079
928.0 0.001078 884.28265 892.59711
905.0 0.001105 882.95111 891.84546
900.0 0.001111 881.61462 891.15497
915.0 0.001093 880.27374 890.53662
885.0 0.001130 878.92810 890.00330
841.0 0.001189 877.57758 889.57098
934.0 0.001071 876.22296 889.25977
916.0 0.001092 874.86371 889.09412
887.0 0.001127 873.50031 889.10553
913.0 0.001095 872.13245 889.33350
894.0 0.001119 870.76007 889.83008
913.0 0.001095 869.38379 890.66260
923.0 0.001083 868.00305 891.92151
933.0 0.001072 866.61871 893.72961
953.0 0.001049 865.23004 896.25763
958.0 0.001044 863.83710 899.75354
941.0 0.001063 862.44067 904.60938
882.0 0.001134 861.04022 911.59772
971.0 0.001030 859.63617 922.62921
993.0 0.001007 858.22833 942.96667
982.0 0.001018 856.81641 985.98236
1074.0 0.000931 855.40143 1079.54321
1278.0 0.000782 853.98273 1267.11023
1622.0 0.000617 852.56073 1589.46997
2167.0 0.000461 851.13525 2041.85913
2575.0 0.000388 849.70612 2530.43604
2997.0 0.0003337 848.27417 2881.07446
2987.0 0.0003348 846.83868 2948.75977
2881.0 0.0003471 845.40051 2774.94775
2513.0 0.000398 843.95905 2501.88843
2063.0 0.000485 842.51422 2186.24414
1843.0 0.000543 841.06696 1836.01453
1592.0 0.000628 839.61664 1502.86853
1236.0 0.000809 838.16376 1243.23157
1030.0 0.000971 836.70801 1074.39880
934.0 0.001071 835.24933 981.53027
920.0 0.001087 833.78851 936.96301
891.0 0.001122 832.32495 917.14087
934.0 0.001071 830.85919 908.73376
932.0 0.001073 829.39099 906.34729
921.0 0.001086 827.92023 909.14111
951.0 0.001052 826.44769 920.01727
961.0 0.001041 824.97260 948.36743
1022.0 0.000978 823.49591 1015.49542
1106.0 0.000904 822.01685 1157.69385
1446.0 0.000692 820.53577 1415.47742
1784.0 0.000561 819.05322 1799.70483
2476.0 0.000404 817.56866 2249.13330
2677.0 0.000374 816.08258 2620.52515
2550.0 0.000392 814.59485 2759.03687
2818.0 0.000355 813.10510 2649.10278
2711.0 0.000369 811.61438 2416.79102
2179.0 0.000459 810.12207 2142.56323
1793.0 0.000558 808.62860 1832.15393
1497.0 0.000668 807.13379 1515.11023
1316.0 0.000760 805.63745 1248.18420
1038.0 0.000963 804.14056 1061.09509
932.0 0.001073 802.64215 949.77124
894.0 0.001119 801.14331 891.64532
863.0 0.001159 799.64319 862.69543
804.0 0.001244 798.14215 847.02264
866.0 0.001155 796.64075 836.91156
810.0 0.001235 795.13843 829.32288
802.0 0.001247 793.63580 823.15088
783.0 0.001277 792.13245 817.92706
821.0 0.001218 790.62836 813.39624
818.0 0.001222 789.12439 809.39404
770.0 0.001299 787.61987 805.79962
821.0 0.001218 786.11542 802.52820
817.0 0.001224 784.61066 799.51416
820.0 0.001220 783.10547 796.70825
781.0 0.001280 781.60095 794.07465
820.0 0.001220 780.09607 791.58197
785.0 0.001274 778.59155 789.20819
745.0 0.001342 777.08716 786.93408
765.0 0.001307 775.58289 784.74445
719.0 0.001391 774.07928 782.62799
796.0 0.001256 772.57605 780.57404
803.0 0.001245 771.07336 777.37854
794.0 0.001259 769.57129 775.47119
776.0 0.001289 768.06958 773.60272
821.0 0.001218 766.56915 771.16119
789.0 0.001267 765.06903 769.38074
769.0 0.001300 763.57031 767.62677
752.0 0.001330 762.07227 765.89532
714.0 0.001401 760.57477 764.18402
691.0 0.001447 759.07910 762.49207
717.0 0.001395 757.58411 760.81635
747.0 0.001339 756.09082 759.15649
708.0 0.001412 754.59863 757.51019
776.0 0.001289 753.10730 755.87604
744.0 0.001344 751.61823 754.25446
754.0 0.001326 750.13007 752.64313
815.0 0.001227 748.64404 751.04230
762.0 0.001312 747.15942 749.45068
701.0 0.001427 745.67633 747.86743
756.0 0.001323 744.19519 746.29266
772.0 0.001295 742.71570 744.72540
735.0 0.001361 741.23859 743.16595
762.0 0.001312 739.76324 741.61328
736.0 0.001359 738.28973 738.93890
758.0 0.001319 736.81854 737.44159
754.0 0.001326 735.34955 735.94800
745.0 0.001342 733.88281 734.45807
723.0 0.001383 732.41846 732.41870
724.0 0.001381 730.95612 730.95642
737.0 0.001357 729.49652 729.49683
724.0 0.001381 728.03949 728.03979
715.0 0.001399 726.58490 726.58527
745.0 0.001342 725.13306 725.13336
684.0 0.001462 723.68359 723.68390
699.0 0.001431 722.23737 722.23767
723.0 0.001383 720.79352 720.79382
661.0 0.001513 719.35297 719.35333
713.0 0.001403 717.91492 717.91522
724.0 0.001381 716.47980 716.48016
746.0 0.001340 715.04822 715.04858
702.0 0.001425 713.61932 713.61963
709.0 0.001410 712.19403 712.19434
682.0 0.001466 710.77167 710.77203
742.0 0.001348 709.35217 709.35254
668.0 0.001497 707.93671 708.17584
709.0 0.001410 706.52411 706.77277
717.0 0.001395 705.11548 705.37427
707.0 0.001414 703.71014 703.97961
716.0 0.001397 702.30780 702.70776
715.0 0.001399 700.90979 701.32672
711.0 0.001406 699.51495 699.94989
742.0 0.001348 698.12427 698.57855
655.0 0.001527 696.73712 697.21185
663.0 0.001508 695.35352 695.85028
662.0 0.001511 693.97406 694.49426
702.0 0.001425 692.59851 693.14398
700.0 0.001429 691.22681 691.79944
648.0 0.001543 689.85919 690.46094
714.0 0.001401 688.49536 689.12860
680.0 0.001471 687.13580 687.80304
709.0 0.001410 685.78046 686.48456
669.0 0.001495 684.42926 685.17340
688.0 0.001453 683.08221 683.86981
693.0 0.001443 681.73926 682.57434
678.0 0.001475 680.40112 681.28802
659.0 0.001517 679.06683 680.01050
662.0 0.001511 677.73712 678.74335
710.0 0.001408 676.41187 677.48700
707.0 0.001414 675.09088 676.24225
670.0 0.001493 673.77490 675.01093
639.0 0.001565 672.46295 673.79333
663.0 0.001508 671.15607 672.59210
668.0 0.001497 669.85358 671.40839
663.0 0.001508 668.55530 670.24420
650.0 0.001538 667.26233 669.10352
710.0 0.001408 665.97375 667.98877
660.0 0.001515 664.69031 666.90509
692.0 0.001445 663.41150 665.85718
645.0 0.001550 662.13708 664.85193
634.0 0.001577 660.86816 663.89899
676.0 0.001479 659.60370 663.00916
670.0 0.001493 658.34460 662.19861
661.0 0.001513 657.09021 661.48749
646.0 0.001548 655.84070 660.90472
651.0 0.001536 654.59631 660.49188
675.0 0.001481 653.35699 660.31586
603.0 0.001658 652.12280 660.50787
654.0 0.001529 650.89368 661.39539
666.0 0.001502 649.66943 663.85858
652.0 0.001534 648.45056 670.07306
668.0 0.001497 647.23694 684.50360
680.0 0.001471 646.02844 714.06531
785.0 0.001274 644.82520 765.60815
793.0 0.001261 643.62695 839.76257
870.0 0.001149 642.43445 923.99756
915.0 0.001093 641.24677 991.97424
886.0 0.001129 640.06458 1016.51855
938.0 0.001066 638.88776 995.96686
884.0 0.001131 637.71606 953.83655
792.0 0.001263 636.55017 906.21039
797.0 0.001255 635.38922 852.89276
734.0 0.001362 634.23407 794.36896
687.0 0.001456 633.08411 739.67114
681.0 0.001468 631.93921 696.86212
636.0 0.001572 630.80035 668.28693
629.0 0.001590 629.66656 651.59283
639.0 0.001565 628.53864 642.55493
624.0 0.001603 627.41595 637.50305
577.0 0.001733 626.29840 634.24237
610.0 0.001639 625.18695 631.75983
661.0 0.001513 624.08063 629.65588
633.0 0.001580 622.98022 627.78021
637.0 0.001570 621.88507 626.06329
633.0 0.001580 620.79535 624.46570
630.0 0.001587 619.71143 622.96161
660.0 0.001515 618.63281 621.53119
629.0 0.001590 617.56012 620.16119
608.0 0.001645 616.49280 618.84021
597.0 0.001675 615.43091 617.55994
621.0 0.001610 614.37476 616.31482
632.0 0.001582 613.32422 615.09937
571.0 0.001751 612.27924 613.90967
602.0 0.001661 611.23987 612.74268
589.0 0.001698 610.20593 611.59546
603.0 0.001658 609.17773 610.46643
585.0 0.001709 608.15515 609.35358
607.0 0.001647 607.13812 608.25543
585.0 0.001709 606.12671 607.17090
625.0 0.001600 605.12073 606.09875
610.0 0.001639 604.12061 605.03870
600.0 0.001667 603.12585 603.98920
599.0 0.001669 602.13696 602.95026
594.0 0.001684 601.15344 601.92108
587.0 0.001704 600.17523 600.90088
562.0 0.001779 599.20306 599.89014
640.0 0.001563 598.23615 598.88757
589.0 0.001698 597.27509 597.89362
667.0 0.001499 596.31946 596.90741
602.0 0.001661 595.36902 595.92877
585.0 0.001709 594.42462 594.95807
610.0 0.001639 593.48541 593.99438
615.0 0.001626 592.55206 593.03821
573.0 0.001745 591.62408 592.08887
542.0 0.001845 590.70142 591.35236
591.0 0.001692 589.78442 590.42499
620.0 0.001613 588.87274 589.50458
587.0 0.001704 587.96686 588.59149
569.0 0.001757 587.06628 587.54883
588.0 0.001701 586.17102 586.66254
618.0 0.001618 585.28131 585.78314
598.0 0.001672 584.39703 584.91052
669.0 0.001495 583.51819 583.92639
553.0 0.001808 582.64465 583.07184
600.0 0.001667 581.77643 582.22400
579.0 0.001727 580.91370 581.38312
510.0 0.001961 580.05634 580.54913
558.0 0.001792 579.20428 579.72241
590.0 0.001695 578.35754 578.90295
595.0 0.001681 577.51593 578.09088
591.0 0.001692 576.67987 577.28680
580.0 0.001724 575.84882 576.49048
592.0 0.001689 575.02332 575.70270
596.0 0.001678 574.20276 574.92328
602.0 0.001661 573.38739 574.15302
581.0 0.001721 572.57745 573.39258
595.0 0.001681 571.77246 572.64191
579.0 0.001727 570.97284 571.90228
559.0 0.001789 570.17822 571.17413
567.0 0.001764 569.38843 570.45819
592.0 0.001689 568.60419 569.75623
622.0 0.001608 567.82471 569.06897
585.0 0.001709 567.05048 568.39862
604.0 0.001656 566.28119 567.74658
575.0 0.001739 565.51660 567.11542
562.0 0.001779 564.75739 566.50861
577.0 0.001733 564.00287 565.92944
577.0 0.001733 563.25354 565.38306
594.0 0.001684 562.50891 564.87531
580.0 0.001724 561.76910 564.41431
589.0 0.001698 561.03424 564.01025
588.0 0.001701 560.30420 563.67731
579.0 0.001727 559.57898 563.43396
599.0 0.001669 558.85852 563.30682
590.0 0.001695 558.14270 563.33588
579.0 0.001727 557.43170 563.59198
602.0 0.001661 556.72540 564.23651
601.0 0.001664 556.02374 565.68970
580.0 0.001724 555.32678 569.02954
628.0 0.001592 554.63428 576.65112
626.0 0.001597 553.94659 592.79956
662.0 0.001511 553.26324 622.95508
789.0 0.001267 552.58453 670.83307
877.0 0.001140 551.91034 733.55115
978.0 0.001022 551.24048 797.77856
975.0 0.001026 550.57532 842.11212
980.0 0.001020 549.91437 850.43610
958.0 0.001044 549.25800 828.50909
986.0 0.001014 548.60590 795.20563
903.0 0.001107 547.95789 760.67676
733.0 0.001364 547.31451 721.47833
717.0 0.001395 546.67517 677.73071
703.0 0.001422 546.04034 635.79816
677.0 0.001477 545.40955 602.34644
610.0 0.001639 544.78278 578.98053
565.0 0.001770 544.16046 564.92639
587.0 0.001704 543.54205 557.24738
563.0 0.001776 542.92792 553.11084
553.0 0.001808 542.31781 550.65381
530.0 0.001887 541.71155 548.94141
582.0 0.001718 541.10944 547.58374
587.0 0.001704 540.51129 546.42926
541.0 0.001848 539.91711 545.41443
566.0 0.001767 539.32678 544.50555
561.0 0.001783 538.74030 543.68121
522.0 0.001916 538.15771 542.92700
547.0 0.001828 537.57898 542.23181
554.0 0.001805 537.00397 541.58820
560.0 0.001786 536.43280 540.99078
590.0 0.001695 535.86517 540.43579
583.0 0.001715 535.30145 539.92108
541.0 0.001848 534.74127 539.44525
546.0 0.001832 534.18475 539.00842
575.0 0.001739 533.63184 538.61121
526.0 0.001901 533.08240 538.25549
524.0 0.001908 532.53668 537.94403
580.0 0.001724 531.99426 537.68024
540.0 0.001852 531.45551 537.46948
555.0 0.001802 530.92017 537.31805
524.0 0.001908 530.38794 537.23413
554.0 0.001805 529.85950 537.22839
540.0 0.001852 529.33411 537.31372
532.0 0.001880 528.81226 537.50732
551.0 0.001815 528.29364 537.83063
538.0 0.001859 527.77808 538.31183
555.0 0.001802 527.26599 538.98730
509.0 0.001965 526.75690 539.90619
575.0 0.001739 526.25116 541.13379
502.0 0.001992 525.74854 542.76202
564.0 0.001773 525.24884 544.92786
550.0 0.001818 524.75238 547.86713
586.0 0.001706 524.25885 552.09955
555.0 0.001802 523.76843 558.94922
585.0 0.001709 523.28101 571.81024
581.0 0.001721 522.79639 598.34827
589.0 0.001698 522.31476 652.63184
710.0 0.001408 521.83606 754.09015
855.0 0.001170 521.36023 918.58435
1130.0 0.000885 520.88721 1143.25635
1301.0 0.000769 520.41693 1389.78540
1410.0 0.000709 519.94946 1585.64233
1548.0 0.000646 519.48474 1659.84973
1547.0 0.000646 519.02277 1607.71240
1491.0 0.000671 518.56354 1493.73474
1266.0 0.000790 518.10675 1369.37244
1103.0 0.000907 517.65283 1237.85718
910.0 0.001099 517.20129 1086.61780
847.0 0.001181 516.75256 927.76910
743.0 0.001346 516.30621 787.29816
628.0 0.001592 515.86224 681.64313
584.0 0.001712 515.42102 613.22137
573.0 0.001745 514.98212 574.26691
523.0 0.001912 514.54572 553.87042
520.0 0.001923 514.11169 543.16705
529.0 0.001890 513.67993 536.92883
508.0 0.001969 513.25067 532.69592
512.0 0.001953 512.82367 529.46338
537.0 0.001862 512.39905 526.83490
493.0 0.002028 511.97659 524.62708
466.0 0.002146 511.55634 522.73547
533.0 0.001876 511.13834 521.09021
487.0 0.002053 510.72250 519.63916
486.0 0.002058 510.30896 518.36890
495.0 0.002020 509.89749 517.20233
488.0 0.002049 509.48807 516.13989
508.0 0.001969 509.08078 515.16449
490.0 0.002041 508.67557 514.26166
517.0 0.001934 508.27240 513.43256
512.0 0.001953 507.87122 512.64404
485.0 0.002062 507.47198 511.90036
513.0 0.001949 507.07477 511.19574
485.0 0.002062 506.67947 510.52484
490.0 0.002041 506.28613 509.88358
502.0 0.001992 505.89468 509.26837
526.0 0.001901 505.50500 508.67615
447.0 0.002237 505.11734 508.10464
492.0 0.002033 504.73138 507.55139
486.0 0.002058 504.34732 507.01480
537.0 0.001862 503.96494 506.49292
496.0 0.002016 503.58429 505.98468
498.0 0.002008 503.20551 505.48892
476.0 0.002101 502.82834 505.00439
506.0 0.001976 502.45297 504.53046
524.0 0.001908 502.07922 504.06610
469.0 0.002132 501.70700 503.61060
490.0 0.002041 501.33661 503.16379
496.0 0.002016 500.96768 502.72473
515.0 0.001942 500.60049 502.29340
508.0 0.001969 500.23480 501.86908
493.0 0.002028 499.87054 501.45157
453.0 0.002208 499.50800 501.04099
496.0 0.002016 499.14685 500.63684
434.0 0.002304 498.78732 499.44101
468.0 0.002137 498.42920 499.08008
438.0 0.002283 498.07248 498.72412
457.0 0.002188 497.71729 498.37363
499.0 0.002004 497.36349 498.02911
515.0 0.001942 497.01111 497.30347
491.0 0.002037 496.66010 496.98758
494.0 0.002024 496.31042 496.67963
474.0 0.002110 495.96216 496.38165
474.0 0.002110 495.61523 496.09604
439.0 0.002278 495.26962 495.82642
511.0 0.001957 494.92532 495.57928
500.0 0.002000 494.58228 495.36823
509.0 0.001965 494.24060 495.22778
490.0 0.002041 493.90005 495.24481
501.0 0.001996 493.56085 495.61475
468.0 0.002137 493.22284 496.70151
501.0 0.001996 492.88599 499.02478
502.0 0.001992 492.55051 503.06329
546.0 0.001832 492.21603 508.86172
532.0 0.001880 491.88287 515.59552
554.0 0.001805 491.55081 521.46021
613.0 0.001631 491.21979 524.57678
583.0 0.001715 490.89011 523.68646
598.0 0.001672 490.56137 520.45801
581.0 0.001721 490.23389 516.68829
531.0 0.001883 489.90744 512.91357
544.0 0.001838 489.58197 508.84641
546.0 0.001832 489.25775 504.13843
489.0 0.002045 488.93451 499.51624
487.0 0.002053 488.61237 495.62546
527.0 0.001898 488.29123 492.76093
521.0 0.001919 487.97110 490.86951
511.0 0.001957 487.65201 489.69290
460.0 0.002174 487.33395 488.94345
502.0 0.001992 487.01688 488.41235
501.0 0.001996 486.70078 487.98346
520.0 0.001923 486.38562 487.60373
519.0 0.001927 486.07147 487.25189
469.0 0.002132 485.75830 488.06110
493.0 0.002028 485.44608 487.78918
473.0 0.002114 485.13480 487.53314
494.0 0.002024 484.82440 487.29169
531.0 0.001883 484.51501 487.06454
466.0 0.002146 484.20645 487.42511
437.0 0.002288 483.89886 487.24936
484.0 0.002066 483.59216 487.09006
471.0 0.002123 483.28632 486.94821
501.0 0.001996 482.98145 486.82529
506.0 0.001976 482.67740 486.72290
473.0 0.002114 482.37427 486.64343
502.0 0.001992 482.07196 486.58942
494.0 0.002024 481.77045 486.56430
495.0 0.002020 481.46991 486.57205
468.0 0.002137 481.17014 486.61774
545.0 0.001835 480.87131 486.70737
486.0 0.002058 480.57324 486.84857
468.0 0.002137 480.27594 487.05112
501.0 0.001996 479.97958 487.32715
525.0 0.001905 479.68396 487.69260
477.0 0.002096 479.38925 488.16837
507.0 0.001972 479.09531 488.78284
507.0 0.001972 478.80212 489.57834
502.0 0.001992 478.50977 490.62720
553.0 0.001808 478.21820 492.08755
512.0 0.001953 477.92749 494.34747
538.0 0.001859 477.63754 498.35590
529.0 0.001890 477.34833 506.16537
509.0 0.001965 477.05994 521.42987
578.0 0.001730 476.77234 549.15057
575.0 0.001739 476.48550 593.64484
708.0 0.001412 476.19943 654.83588
699.0 0.001431 475.91409 724.45074
796.0 0.001256 475.62958 785.13641
820.0 0.001220 475.34579 816.91754
839.0 0.001192 475.06284 812.78729
801.0 0.001248 474.78058 786.40125
784.0 0.001276 474.49905 755.25116
721.0 0.001387 474.21838 725.30579
667.0 0.001499 473.93835 692.82141
671.0 0.001490 473.65918 655.86603
658.0 0.001520 473.38071 620.30298
630.0 0.001587 473.10287 594.96326
598.0 0.001672 472.82593 589.04181
587.0 0.001704 472.54965 614.12640
641.0 0.001560 472.27420 686.82245
728.0 0.001374 471.99945 827.08411
1008.0 0.000992 471.72534 1047.70142
1298.0 0.000770 471.45212 1336.60754
1618.0 0.000618 471.17953 1643.02710
1719.0 0.000582 470.90781 1880.35059
1697.0 0.000589 470.63675 1968.28394
1858.0 0.000538 470.36636 1903.49487
1765.0 0.000567 470.09680 1762.84644
1466.0 0.000682 469.82791 1613.22009
1224.0 0.000817 469.55984 1465.22693
1055.0 0.000948 469.29245 1297.14001
1001.0 0.000999 469.02579 1106.15381
889.0 0.001125 468.75986 919.12512
715.0 0.001399 468.49469 762.78485
571.0 0.001751 468.23026 649.80615
557.0 0.001795 467.96655 578.34473
519.0 0.001927 467.70355 537.89825
533.0 0.001876 467.44128 516.39374
531.0 0.001883 467.17984 504.77563
511.0 0.001957 466.91904 497.81079
522.0 0.001916 466.65900 493.01959
492.0 0.002033 466.39972 489.36050
500.0 0.002000 466.14117 486.40073
476.0 0.002101 465.88336 483.93823
493.0 0.002028 465.62628 481.85397
495.0 0.002020 465.36987 480.06833
496.0 0.002016 465.11429 478.52310
481.0 0.002079 464.85944 477.17368
476.0 0.002101 464.60529 475.98654
467.0 0.002141 464.35193 474.93539
488.0 0.002049 464.09924 473.99982
478.0 0.002092 463.84738 473.16428
462.0 0.002165 463.59619 472.41599
490.0 0.002041 463.34583 471.74573
482.0 0.002075 463.09613 471.14587
514.0 0.001946 462.84717 470.61145
517.0 0.001934 462.59903 470.13916
503.0 0.001988 462.35156 469.72714
484.0 0.002066 462.10495 469.78879
502.0 0.001992 461.85898 469.51614
454.0 0.002203 461.61374 469.06790
490.0 0.002041 461.36935 468.94626
510.0 0.001961 461.12564 468.90863
509.0 0.001965 460.88275 469.17557
506.0 0.001976 460.64056 469.24121
438.0 0.002283 460.39908 469.59061
449.0 0.002227 460.15848 470.15643
479.0 0.002088 459.91852 471.07745
521.0 0.001919 459.67941 472.69714
517.0 0.001934 459.44095 475.84784
482.0 0.002075 459.20334 482.31119
490.0 0.002041 458.96643 495.25732
547.0 0.001828 458.73032 519.08289
498.0 0.002008 458.49493 557.80865
537.0 0.001862 458.26028 612.02777
648.0 0.001543 458.02646 675.53339
723.0 0.001383 457.79337 732.91962
723.0 0.001383 457.56104 768.17993
659.0 0.001517 457.32947 769.99933
662.0 0.001511 457.09866 747.03101
638.0 0.001567 456.86859 716.14856
605.0 0.001653 456.63934 685.71149
558.0 0.001792 456.41077 655.07214
572.0 0.001748 456.18301 619.22443
515.0 0.001942 455.95602 579.80341
560.0 0.001786 455.72974 542.73792
493.0 0.002028 455.50430 512.77814
514.0 0.001946 455.27957 491.70551
467.0 0.002141 455.05566 478.67813
503.0 0.001988 454.83243 471.43625
489.0 0.002045 454.60995 467.66818
482.0 0.002075 454.38834 465.72128
461.0 0.002169 454.16739 464.67288
503.0 0.001988 453.94727 464.09949
488.0 0.002049 453.72784 463.83472
467.0 0.002141 453.50919 463.82559
463.0 0.002160 453.29135 464.06888
480.0 0.002083 453.07419 464.59320
498.0 0.002008 452.85788 465.47134
490.0 0.002041 452.64224 466.88004
501.0 0.001996 452.42737 469.26627
516.0 0.001938 452.21326 473.72812
475.0 0.002105 451.99994 482.68405
475.0 0.002105 451.78735 500.60471
552.0 0.001812 451.57547 534.08386
592.0 0.001689 451.36435 589.96820
789.0 0.001267 451.15402 671.04541
976.0 0.001025 450.94440 770.80371
1112.0 0.000899 450.73553 870.14386
1115.0 0.000897 450.52740 940.65442
1136.0 0.000880 450.32001 959.87958
1192.0 0.000839 450.11337 932.48438
1107.0 0.000903 449.90744 884.44159
1010.0 0.000990 449.70227 835.76941
839.0 0.001192 449.49780 788.73492
755.0 0.001325 449.29407 735.49274
702.0 0.001425 449.09109 673.92908
662.0 0.001511 448.88882 611.74817
554.0 0.001805 448.68729 557.92401
553.0 0.001808 448.48645 517.41205
515.0 0.001942 448.28629 490.62979
481.0 0.002079 448.08691 474.78711
457.0 0.002188 447.88818 466.07028
478.0 0.002092 447.69025 461.30612
477.0 0.002096 447.49292 458.48877
468.0 0.002137 447.29633 456.58893
431.0 0.002320 447.10046 455.14786
480.0 0.002083 446.90524 453.97250
449.0 0.002227 446.71078 452.97772
461.0 0.002169 446.51694 451.87317
455.0 0.002198 446.32382 451.12680
456.0 0.002193 446.13135 450.46390
471.0 0.002123 445.93954 449.86844
463.0 0.002160 445.74847 449.32846
462.0 0.002165 445.55801 448.71323
477.0 0.002096 445.36823 448.26178
472.0 0.002119 445.17911 447.84241
427.0 0.002342 444.99063 447.45020
467.0 0.002141 444.80283 447.08127
469.0 0.002132 444.61566 446.73230
460.0 0.002174 444.42911 446.40063
434.0 0.002304 444.24319 446.08414
442.0 0.002262 444.05792 445.78082
430.0 0.002326 443.87329 445.48917
413.0 0.002421 443.68927 445.20782
445.0 0.002247 443.50583 444.93561
441.0 0.002268 443.32309 444.67169
421.0 0.002375 443.14084 444.41501
426.0 0.002347 442.95929 444.16501
469.0 0.002132 442.77826 443.92090
418.0 0.002392 442.59781 443.68219
467.0 0.002141 442.41800 443.44852
407.0 0.002457 442.23874 443.21930
451.0 0.002217 442.06009 442.99423
406.0 0.002463 441.88193 442.77286
430.0 0.002326 441.70435 442.55502
396.0 0.002525 441.52734 442.34042
426.0 0.002347 441.35086 442.12881
444.0 0.002252 441.17499 441.91998
396.0 0.002525 440.99954 441.71368
459.0 0.002179 440.82468 441.50980
447.0 0.002237 440.65036 440.89917
419.0 0.002387 440.47647 440.71500
431.0 0.002320 440.30319 440.53198
416.0 0.002404 440.13034 440.35004
470.0 0.002128 439.95801 440.16913
430.0 0.002326 439.78616 439.78564
448.0 0.002232 439.61478 439.61426
432.0 0.002315 439.44391 439.44336
417.0 0.002398 439.27347 439.27292
409.0 0.002445 439.10345 439.10291
438.0 0.002283 438.93393 438.95184
410.0 0.002439 438.76486 438.78351
387.0 0.002584 438.59622 438.61563
454.0 0.002203 438.42801 438.44821
404.0 0.002475 438.26016 438.28128
402.0 0.002488 438.09280 438.11481
444.0 0.002252 437.92581 437.95822
419.0 0.002387 437.75925 437.79312
415.0 0.002410 437.59305 437.62839
402.0 0.002488 437.42719 437.46417
409.0 0.002445 437.26178 437.30048
445.0 0.002247 437.09668 437.13724
421.0 0.002375 436.93198 436.97455
434.0 0.002304 436.76758 436.81229
356.0 0.002809 436.60352 436.65054
433.0 0.002309 436.43985 436.48935
437.0 0.002288 436.27646 436.32861
430.0 0.002326 436.11343 436.16852
406.0 0.002463 435.95065 436.00888
434.0 0.002304 435.78818 435.84985
464.0 0.002155 435.62604 435.69147
453.0 0.002208 435.46414 435.53366
447.0 0.002237 435.30255 435.37656
417.0 0.002398 435.14120 435.22012
372.0 0.002688 434.98010 435.06445
422.0 0.002370 434.81927 434.90970
397.0 0.002519 434.65866 434.75577
443.0 0.002257 434.49832 434.60284
401.0 0.002494 434.33813 434.45102
429.0 0.002331 434.17822 434.30048
408.0 0.002451 434.01849 434.15134
411.0 0.002433 433.85898 434.00381
440.0 0.002273 433.69965 433.85901
457.0 0.002188 433.54047 433.71561
407.0 0.002457 433.38144 433.57486
410.0 0.002439 433.22263 433.43726
455.0 0.002198 433.06393 433.30350
455.0 0.002198 432.90540 433.17490
429.0 0.002331 432.74698 433.05185
439.0 0.002278 432.58868 432.93649
410.0 0.002439 432.43057 432.83173
455.0 0.002198 432.27246 432.74326
437.0 0.002288 432.11456 432.68399
445.0 0.002247 431.95667 432.68536
411.0 0.002433 431.79886 432.81702
401.0 0.002494 431.64117 433.21436
409.0 0.002445 431.48349 434.09613
457.0 0.002188 431.32593 435.73465
403.0 0.002481 431.16833 438.34653
427.0 0.002342 431.01080 441.91031
448.0 0.002232 430.85333 445.99612
430.0 0.002326 430.69586 449.72119
441.0 0.002268 430.53845 451.96902
434.0 0.002304 430.38095 452.08823
482.0 0.002075 430.22348 450.52884
444.0 0.002252 430.06601 448.34509
437.0 0.002288 429.90851 446.24054
420.0 0.002381 429.75098 444.25308
431.0 0.002320 429.59338 442.03659
434.0 0.002304 429.43576 439.44803
433.0 0.002309 429.27808 436.74734
456.0 0.002193 429.12033 434.29379
424.0 0.002358 428.96249 432.32587
425.0 0.002353 428.80460 430.90833
439.0 0.002278 428.64655 429.96768
451.0 0.002217 428.48846 429.36459
420.0 0.002381 428.33023 428.96402
408.0 0.002451 428.17191 428.67053
419.0 0.002387 428.01343 428.63254
433.0 0.002309 427.85483 428.42355
437.0 0.002288 427.69611 428.22879
386.0 0.002591 427.53720 428.04324
421.0 0.002375 427.37820 427.86465
424.0 0.002358 427.21896 427.69193
429.0 0.002331 427.05954 427.62750
412.0 0.002427 426.90002 427.47134
432.0 0.002315 426.74023 427.32617
435.0 0.002299 426.58032 427.19928
427.0 0.002342 426.42014 427.10049
438.0 0.002283 426.25974 427.03979
455.0 0.002198 426.09918 427.02075
483.0 0.002070 425.93832 427.03354
513.0 0.001949 425.77731 427.05054
500.0 0.002000 425.61600 427.02957
477.0 0.002096 425.45444 426.93237
469.0 0.002132 425.29266 426.75623
491.0 0.002037 425.13055 426.53699
513.0 0.001949 424.96826 426.31268
486.0 0.002058 424.80563 426.09769
476.0 0.002101 424.64273 425.88354
459.0 0.002179 424.47955 425.65732
461.0 0.002169 424.31607 425.42126
457.0 0.002188 424.15228 425.18909
429.0 0.002331 423.98819 424.97372
436.0 0.002294 423.82376 424.78210
437.0 0.002288 423.65903 424.61484
423.0 0.002364 423.49396 424.46771
415.0 0.002410 423.32858 424.33557
415.0 0.002410 423.16284 424.51761
426.0 0.002347 422.99670 424.41379
407.0 0.002457 422.83032 424.31735
422.0 0.002370 422.66348 424.22797
431.0 0.002320 422.49637 424.14624
437.0 0.002288 422.32883 424.22095
402.0 0.002488 422.16089 424.14316
401.0 0.002494 421.99261 424.09570
435.0 0.002299 421.82394 424.06073
459.0 0.002179 421.65491 424.04007
406.0 0.002463 421.48544 424.03592
399.0 0.002506 421.31555 424.04163
457.0 0.002188 421.14532 424.07974
405.0 0.002469 420.97464 424.14444
404.0 0.002475 420.80359 424.24091
384.0 0.002604 420.63205 424.52463
443.0 0.002257 420.46014 424.70981
417.0 0.002398 420.28781 424.95132
448.0 0.002232 420.11502 425.26242
428.0 0.002336 419.94183 425.66080
442.0 0.002262 419.76816 426.17178
413.0 0.002421 419.59406 426.91122
440.0 0.002273 419.41953 427.81006
428.0 0.002336 419.24457 429.11926
419.0 0.002387 419.06912 431.25372
429.0 0.002331 418.89325 435.13120
441.0 0.002268 418.71686 442.53821
469.0 0.002132 418.54007 456.40836
452.0 0.002212 418.36282 480.58853
478.0 0.002092 418.18509 518.54163
577.0 0.001733 418.00687 571.08405
735.0 0.001361 417.82819 633.85364
787.0 0.001271 417.64908 696.07739
788.0 0.001269 417.46942 742.15240
782.0 0.001279 417.28934 758.74597
832.0 0.001202 417.10873 745.99323
771.0 0.001297 416.92767 717.40320
761.0 0.001314 416.74615 686.75970
694.0 0.001441 416.56412 659.33228
621.0 0.001610 416.38162 631.98132
526.0 0.001901 416.19861 599.60004
567.0 0.001764 416.01511 562.33356
527.0 0.001898 415.83115 524.95947
553.0 0.001808 415.64667 492.33276
480.0 0.002083 415.46176 467.28284
444.0 0.002252 415.27628 450.24268
464.0 0.002155 415.09033 439.90384
445.0 0.002247 414.90393 434.25229
451.0 0.002217 414.71701 431.45544
423.0 0.002364 414.52963 430.26227
432.0 0.002315 414.34171 429.98953
454.0 0.002203 414.15332 430.36905
420.0 0.002381 413.96445 431.43872
414.0 0.002415 413.77512 433.59583
426.0 0.002347 413.58527 437.86227
457.0 0.002188 413.39487 446.36676
406.0 0.002463 413.20404 462.81842
492.0 0.002033 413.01276 492.44144
494.0 0.002024 412.82095 540.66278
580.0 0.001724 412.62866 610.12793
658.0 0.001520 412.43591 697.16980
829.0 0.001206 412.24265 789.27466
882.0 0.001134 412.04895 865.58722
864.0 0.001157 411.85474 903.77637
855.0 0.001170 411.66006 896.57965
907.0 0.001103 411.46490 859.67175
907.0 0.001103 411.26926 815.16302
753.0 0.001328 411.07321 775.37500
705.0 0.001418 410.87665 739.24188
669.0 0.001495 410.67966 698.62445
626.0 0.001597 410.48218 650.59863
620.0 0.001613 410.28421 601.65973
536.0 0.001866 410.08588 561.53485
525.0 0.001905 409.88699 538.34619
514.0 0.001946 409.68777 536.48877
528.0 0.001894 409.48801 555.29871
585.0 0.001709 409.28781 588.75653
657.0 0.001522 409.08725 626.17847
715.0 0.001399 408.88620 654.23529
724.0 0.001381 408.68478 662.27802
753.0 0.001328 408.48285 650.39777
756.0 0.001323 408.28055 628.29572
682.0 0.001466 408.07785 605.51874
675.0 0.001481 407.87473 585.66693
579.0 0.001727 407.67117 566.35437
493.0 0.002028 407.46722 543.51398
526.0 0.001901 407.26288 516.85016
461.0 0.002169 407.05817 489.60876
440.0 0.002273 406.85306 465.28625
498.0 0.002008 406.64755 446.07428
406.0 0.002463 406.44168 432.50146
428.0 0.002336 406.23538 423.79825
419.0 0.002387 406.02884 418.58417
421.0 0.002375 405.82184 415.51669
414.0 0.002415 405.61450 413.62485
375.0 0.002667 405.40683 412.33054
424.0 0.002358 405.19876 411.33957
401.0 0.002494 404.99045 410.31262
397.0 0.002519 404.78174 409.60184
402.0 0.002488 404.57275 408.96750
412.0 0.002427 404.36340 408.39243
416.0 0.002404 404.15372 407.86520
349.0 0.002865 403.94382 407.27432
401.0 0.002494 403.73355 406.82254
416.0 0.002404 403.52304 406.39828
408.0 0.002451 403.31219 405.99725
399.0 0.002506 403.10104 405.61609
389.0 0.002571 402.88974 405.25226
364.0 0.002747 402.67807 404.90320
433.0 0.002309 402.46622 404.56720
399.0 0.002506 402.25406 404.24261
414.0 0.002415 402.04166 403.92816
396.0 0.002525 401.82904 403.62277
412.0 0.002427 401.61618 403.32541
398.0 0.002513 401.40317 403.03555
400.0 0.002500 401.18985 402.75223
411.0 0.002433 400.97638 402.47510
402.0 0.002488 400.76273 402.20374
392.0 0.002551 400.54886 401.93774
394.0 0.002538 400.33484 401.67688
402.0 0.002488 400.12064 401.47226
391.0 0.002558 399.90622 401.22305
415.0 0.002410 399.69171 400.97897
423.0 0.002364 399.47705 400.74020
422.0 0.002370 399.26224 400.50717
363.0 0.002755 399.04730 400.28049
407.0 0.002457 398.83221 399.78561
375.0 0.002667 398.61707 399.58588
398.0 0.002513 398.40176 399.39951
400.0 0.002500 398.18643 399.23663
401.0 0.002494 397.97095 399.12000
424.0 0.002358 397.75537 399.09665
392.0 0.002551 397.53983 399.10342
398.0 0.002513 397.32413 399.56967
395.0 0.002532 397.10846 400.49625
382.0 0.002618 396.89267 402.00491
421.0 0.002375 396.67685 404.09552
436.0 0.002294 396.46109 406.56100
423.0 0.002364 396.24524 408.95441
429.0 0.002331 396.02945 410.65485
445.0 0.002247 395.81360 411.15491
392.0 0.002551 395.59778 410.45990
403.0 0.002481 395.38202 408.92477
412.0 0.002427 395.16623 407.40979
404.0 0.002475 394.95056 406.03177
404.0 0.002475 394.73486 404.71982
393.0 0.002545 394.51926 403.25458
377.0 0.002653 394.30374 401.47971
392.0 0.002551 394.08832 399.68054
370.0 0.002703 393.87296 397.98239
388.0 0.002577 393.65768 396.53958
391.0 0.002558 393.44250 395.41940
431.0 0.002320 393.22748 394.60617
450.0 0.002222 393.01260 394.03323
380.0 0.002632 392.79782 393.62183
357.0 0.002801 392.58322 393.30640
401.0 0.002494 392.36874 393.04352
386.0 0.002591 392.15448 392.80893
384.0 0.002604 391.94034 392.59064
357.0 0.002801 391.72644 392.38370
388.0 0.002577 391.51266 392.18588
401.0 0.002494 391.29910 391.99670
376.0 0.002660 391.08585 391.81638
398.0 0.002513 390.87271 391.64526
382.0 0.002618 390.65988 391.48450
376.0 0.002660 390.44727 391.33530
396.0 0.002525 390.23486 391.19962
400.0 0.002500 390.02283 391.08026
404.0 0.002475 389.81097 390.98065
386.0 0.002591 389.59946 390.90634
369.0 0.002710 389.38818 390.86630
410.0 0.002439 389.17722 390.87872
379.0 0.002639 388.96661 390.98407
373.0 0.002681 388.75629 391.27393
415.0 0.002410 388.54636 391.94131
380.0 0.002632 388.33667 393.34906
397.0 0.002519 388.12738 396.07800
390.0 0.002564 387.91846 400.88165
442.0 0.002262 387.70990 408.47141
402.0 0.002488 387.50174 419.10324
414.0 0.002415 387.29391 432.14200
430.0 0.002326 387.08652 445.76422
451.0 0.002217 386.87952 457.07645
436.0 0.002294 386.67294 462.98697
435.0 0.002299 386.46680 462.28467
402.0 0.002488 386.26108 456.86877
437.0 0.002288 386.05579 449.87988
407.0 0.002457 385.85098 443.42532
408.0 0.002451 385.64661 437.82068
418.0 0.002392 385.44272 432.00656
397.0 0.002519 385.23929 424.95132
387.0 0.002584 385.03635 416.83646
374.0 0.002674 384.83395 408.65521
404.0 0.002475 384.63199 401.37338
417.0 0.002398 384.43063 395.58395
427.0 0.002342 384.22971 391.42496
357.0 0.002801 384.02933 388.68246
388.0 0.002577 383.82956 386.97229
366.0 0.002732 383.63025 385.91318
367.0 0.002725 383.43158 385.22079
385.0 0.002597 383.23340 384.71875
363.0 0.002755 383.03580 384.31360
359.0 0.002786 382.83884 383.95395
408.0 0.002451 382.64243 383.62973
383.0 0.002611 382.44666 383.33066
377.0 0.002653 382.25143 383.04819
391.0 0.002558 382.05685 382.77908
358.0 0.002793 381.86288 382.52097
337.0 0.002967 381.66956 382.26862
353.0 0.002833 381.47687 382.02597
399.0 0.002506 381.28479 381.79138
371.0 0.002695 381.09341 381.56259
395.0 0.002532 380.90268 381.33875
375.0 0.002667 380.71262 381.11926
397.0 0.002519 380.52322 380.90366
384.0 0.002604 380.33450 380.69153
386.0 0.002591 380.14645 380.48248
375.0 0.002667 379.95917 380.27649
363.0 0.002755 379.77252 380.07300
420.0 0.002381 379.58658 379.87198
387.0 0.002584 379.40140 379.67334
357.0 0.002801 379.21689 379.67014
394.0 0.002538 379.03317 379.48212
373.0 0.002681 378.85013 379.29630
406.0 0.002463 378.66791 379.11295
360.0 0.002778 378.48636 378.93188
350.0 0.002857 378.30554 378.75317
379.0 0.002639 378.12558 378.67236
354.0 0.002825 377.94632 378.50186
348.0 0.002874 377.76788 378.33456
380.0 0.002632 377.59015 378.17078
392.0 0.002551 377.41324 378.01175
379.0 0.002639 377.23715 377.86008
370.0 0.002703 377.06180 377.72119
403.0 0.002481 376.88730 377.60577
385.0 0.002597 376.71356 377.53217
406.0 0.002463 376.54068 377.52652
415.0 0.002410 376.36856 377.61826
382.0 0.002618 376.19730 377.82855
373.0 0.002681 376.02689 378.15350
384.0 0.002604 375.85724 378.55020
434.0 0.002304 375.68845 378.93112
380.0 0.002632 375.52051 379.17676
426.0 0.002347 375.35342 379.18518
416.0 0.002404 375.18716 378.95190
372.0 0.002688 375.02179 378.57645
367.0 0.002725 374.85721 378.12283
399.0 0.002506 374.69351 377.75858
401.0 0.002494 374.53070 377.42758
406.0 0.002463 374.36877 377.08371
375.0 0.002667 374.20767 376.69315
358.0 0.002793 374.04745 376.26944
408.0 0.002451 373.88815 375.82672
381.0 0.002625 373.72968 375.45316
377.0 0.002653 373.57214 375.14490
398.0 0.002513 373.41541 374.90726
426.0 0.002347 373.25961 374.73288
365.0 0.002740 373.10474 374.60828
349.0 0.002865 372.95068 374.52011
400.0 0.002500 372.79764 374.45901
376.0 0.002660 372.64539 374.41977
390.0 0.002564 372.49405 374.40088
383.0 0.002611 372.34366 374.40311
397.0 0.002519 372.19415 374.42883
346.0 0.002890 372.04556 374.48169
342.0 0.002924 371.89789 374.56638
376.0 0.002660 371.75110 374.68900
369.0 0.002710 371.60526 374.85733
362.0 0.002762 371.46027 375.08182
359.0 0.002786 371.31625 375.37671
373.0 0.002681 371.17313 375.76404
384.0 0.002604 371.03091 376.28329
374.0 0.002674 370.88965 377.01593
391.0 0.002558 370.74927 378.14258
367.0 0.002725 370.60983 380.05133
363.0 0.002755 370.47131 383.51434
399.0 0.002506 370.33368 389.88565
364.0 0.002747 370.19699 401.19073
423.0 0.002364 370.06125 419.89249
433.0 0.002309 369.92639 448.27057
474.0 0.002110 369.79248 486.44861
508.0 0.001969 369.65945 532.14465
665.0 0.001504 369.52737 579.25842
666.0 0.001502 369.39621 618.50244
680.0 0.001471 369.26599 640.00446
706.0 0.001416 369.13663 639.65503
661.0 0.001513 369.00821 622.71692
661.0 0.001513 368.88074 599.36841
583.0 0.001715 368.75415 577.20642
593.0 0.001686 368.62851 558.47577
517.0 0.001934 368.50372 540.51306
482.0 0.002075 368.37988 519.23907
480.0 0.002083 368.25696 493.60312
480.0 0.002083 368.13495 466.05179
426.0 0.002347 368.01385 439.97153
412.0 0.002427 367.89362 417.92810
423.0 0.002364 367.77429 401.15927
374.0 0.002674 367.65591 389.58163
392.0 0.002551 367.53839 382.22324
387.0 0.002584 367.42181 377.81989
390.0 0.002564 367.30609 375.23950
365.0 0.002740 367.19125 373.67975
366.0 0.002732 367.07733 372.65707
362.0 0.002762 366.96429 371.91492
362.0 0.002762 366.85214 371.32983
372.0 0.002688 366.74084 370.84613
368.0 0.002717 366.63043 370.42889
376.0 0.002660 366.52094 370.06924
377.0 0.002653 366.41226 369.75494
379.0 0.002639 366.30447 369.47906
385.0 0.002597 366.19757 369.23624
407.0 0.002457 366.09149 369.02371
391.0 0.002558 365.98630 368.83514
342.0 0.002924 365.88193 368.67145
364.0 0.002747 365.77844 368.53030
385.0 0.002597 365.67581 368.41055
399.0 0.002506 365.57397 368.31186
375.0 0.002667 365.47302 368.23422
404.0 0.002475 365.37286 368.17831
372.0 0.002688 365.27356 368.14529
376.0 0.002660 365.17508 368.13669
397.0 0.002519 365.07739 368.15509
358.0 0.002793 364.98056 368.20380
389.0 0.002571 364.88452 368.28693
364.0 0.002747 364.78931 368.41016
433.0 0.002309 364.69485 368.58084
379.0 0.002639 364.60123 368.80905
412.0 0.002427 364.50839 369.10922
394.0 0.002538 364.41632 369.50516
395.0 0.002532 364.32507 370.04236
392.0 0.002551 364.23456 370.81763
395.0 0.002532 364.14484 372.04169
378.0 0.002646 364.05588 374.15015
353.0 0.002833 363.96768 377.96616
362.0 0.002762 363.88025 384.84897
380.0 0.002632 363.79352 396.71301
398.0 0.002513 363.70758 415.69501
411.0 0.002433 363.62238 443.36847
464.0 0.002155 363.53787 479.65375
498.0 0.002008 363.45413 521.75610
617.0 0.001621 363.37109 563.81201
556.0 0.001799 363.28876 597.41803
583.0 0.001715 363.20715 614.35028
552.0 0.001812 363.12622 611.96216
633.0 0.001580 363.04599 595.72534
554.0 0.001805 362.96646 574.43500
498.0 0.002008 362.88760 554.51196
465.0 0.002151 362.80945 537.59015
461.0 0.002169 362.73193 521.71936
439.0 0.002278 362.65512 503.05069
448.0 0.002232 362.57892 480.38095
461.0 0.002169 362.50336 455.65350
435.0 0.002299 362.42847 431.82285
420.0 0.002381 362.35422 411.16937
391.0 0.002558 362.28061 395.17548
384.0 0.002604 362.20758 383.85358
376.0 0.002660 362.13519 376.48740
361.0 0.002770 362.06342 372.00024
393.0 0.002545 361.99222 369.36441
364.0 0.002747 361.92166 367.81659
367.0 0.002725 361.85165 366.88211
415.0 0.002410 361.78223 366.31290
372.0 0.002688 361.71338 365.99844
371.0 0.002695 361.64511 365.89240
387.0 0.002584 361.57739 365.96072
385.0 0.002597 361.51022 366.15076
385.0 0.002597 361.44360 366.37799
369.0 0.002710 361.37753 366.53024
383.0 0.002611 361.31198 366.49994
394.0 0.002538 361.24695 366.24915
359.0 0.002786 361.18243 365.84134
359.0 0.002786 361.11841 365.38348
385.0 0.002597 361.05490 364.95523
360.0 0.002778 360.99191 364.58020
366.0 0.002732 360.92938 364.23026
366.0 0.002732 360.86731 363.92902
346.0 0.002890 360.80573 363.51544
390.0 0.002564 360.74463 363.07935
398.0 0.002513 360.68396 362.65634
392.0 0.002551 360.62378 362.27716
389.0 0.002571 360.56400 361.95886
363.0 0.002755 360.50464 361.73932
348.0 0.002874 360.44574 361.54190
395.0 0.002532 360.38724 361.38684
385.0 0.002597 360.32916 361.26062
359.0 0.002786 360.27148 361.15259
367.0 0.002725 360.21417 361.05579
366.0 0.002732 360.15729 360.96622
366.0 0.002732 360.10077 360.88165
352.0 0.002841 360.04465 360.80103
379.0 0.002639 359.98886 360.72369
353.0 0.002833 359.93344 360.64935
373.0 0.002681 359.87836 360.57773
410.0 0.002439 359.82364 360.50861
338.0 0.002959 359.76926 360.44189
349.0 0.002865 359.71518 360.37750
334.0 0.002994 359.66144 360.31531
354.0 0.002825 359.60800 360.25525
369.0 0.002710 359.55487 360.19727
326.0 0.003067 359.50204 360.14139
403.0 0.002481 359.44952 360.08765
349.0 0.002865 359.39725 360.03595
381.0 0.002625 359.34525 359.98645
385.0 0.002597 359.29355 359.93918
371.0 0.002695 359.24210 359.89417
361.0 0.002770 359.19089 359.66699
333.0 0.003003 359.13992 359.63269
403.0 0.002481 359.08923 359.60086
372.0 0.002688 359.03873 359.57166
381.0 0.002625 358.98849 359.54556
357.0 0.002801 358.93845 359.52264
315.0 0.003175 358.88858 359.50345
405.0 0.002469 358.83899 359.39807
358.0 0.002793 358.78952 359.39053
389.0 0.002571 358.74030 359.38831
361.0 0.002770 358.69122 359.39215
388.0 0.002577 358.64233 359.40311
347.0 0.002882 358.59363 359.42245
360.0 0.002778 358.54504 359.45169
382.0 0.002618 358.49667 359.49271
384.0 0.002604 358.44839 359.54800
350.0 0.002857 358.40027 359.62079
354.0 0.002825 358.35229 359.71555
365.0 0.002740 358.30441 359.83936
356.0 0.002809 358.25671 360.00513
371.0 0.002695 358.20908 360.23935
386.0 0.002591 358.16156 360.59793
343.0 0.002915 358.11414 361.19617
344.0 0.002907 358.06683 362.25433
333.0 0.003003 358.01959 364.14700
353.0 0.002833 357.97244 367.43115
376.0 0.002660 357.92535 372.79068
368.0 0.002717 357.87836 380.86871
365.0 0.002740 357.83142 391.95682
384.0 0.002604 357.78455 405.64584
422.0 0.002370 357.73770 420.60315
471.0 0.002123 357.69089 434.54227
463.0 0.002160 357.64417 444.59961
412.0 0.002427 357.59744 448.47849
417.0 0.002398 357.55075 446.09741
443.0 0.002257 357.50409 439.72577
448.0 0.002232 357.45743 432.20267
428.0 0.002336 357.41080 425.40417
410.0 0.002439 357.36414 419.73331
395.0 0.002532 357.31750 414.33411
370.0 0.002703 357.27087 407.98029
382.0 0.002618 357.22421 400.23877
377.0 0.002653 357.17752 391.69574
446.0 0.002242 357.13083 383.30899
378.0 0.002646 357.08414 375.90714
357.0 0.002801 357.03735 369.97635
395.0 0.002532 356.99057 365.63474
338.0 0.002959 356.94373 362.70273
366.0 0.002732 356.89685 360.84540
327.0 0.003058 356.84995 359.71320
349.0 0.002865 356.80295 359.02142
341.0 0.002933 356.75589 358.57718
361.0 0.002770 356.70877 358.26584
367.0 0.002725 356.66159 358.02618
386.0 0.002591 356.61435 357.82797
366.0 0.002732 356.56699 357.65640
346.0 0.002890 356.51956 357.50394
394.0 0.002538 356.47205 357.36630
344.0 0.002907 356.42447 357.24054
349.0 0.002865 356.37677 357.12457
339.0 0.002950 356.32898 357.01678
351.0 0.002849 356.28107 356.91589
326.0 0.003067 356.23306 356.82083
327.0 0.003058 356.18494 356.73074
352.0 0.002841 356.13672 356.64612
381.0 0.002625 356.08835 356.56860
361.0 0.002770 356.03989 356.48978
348.0 0.002874 355.99127 356.41373
321.0 0.003115 355.94254 356.34003
352.0 0.002841 355.89368 356.26846
370.0 0.002703 355.84470 356.19870
370.0 0.002703 355.79553 356.13123
317.0 0.003155 355.74628 356.06689
346.0 0.002890 355.69684 356.00162
379.0 0.002639 355.64728 355.93741
384.0 0.002604 355.59756 355.87421
368.0 0.002717 355.54770 355.81192
381.0 0.002625 355.49768 355.75040
356.0 0.002809 355.44748 355.68958
342.0 0.002924 355.39716 355.62939
358.0 0.002793 355.34662 355.56976
346.0 0.002890 355.29596 355.51065
381.0 0.002625 355.24512 355.45193
368.0 0.002717 355.19409 355.39368
355.0 0.002817 355.14294 355.33572
354.0 0.002825 355.09158 355.27814
358.0 0.002793 355.04004 355.22079
368.0 0.002717 354.98831 355.16373
342.0 0.002924 354.93643 355.10687
389.0 0.002571 354.88437 355.05026
350.0 0.002857 354.83212 354.99387
353.0 0.002833 354.77966 354.93762
341.0 0.002933 354.72705 354.88156
316.0 0.003165 354.67426 354.82562
346.0 0.002890 354.62125 354.76990
326.0 0.003067 354.56805 354.71426
358.0 0.002793 354.51468 354.58884
356.0 0.002809 354.46109 354.53574
366.0 0.002732 354.40735 354.48264
353.0 0.002833 354.35339 354.42966
349.0 0.002865 354.29922 354.37677
322.0 0.003106 354.24487 354.32407
406.0 0.002463 354.19034 354.23578
348.0 0.002874 354.13559 354.24313
343.0 0.002915 354.08066 354.19406
391.0 0.002558 354.02551 354.14536
395.0 0.002532 353.97018 354.09708
354.0 0.002825 353.91464 354.04941
348.0 0.002874 353.85892 354.00250
370.0 0.002703 353.80298 353.95645
351.0 0.002849 353.74686 353.94061
319.0 0.003135 353.69052 353.89801
336.0 0.002976 353.63400 353.85739
333.0 0.003003 353.57724 353.81943
379.0 0.002639 353.52032 353.78571
342.0 0.002924 353.46320 353.75925
348.0 0.002874 353.40588 353.80902
343.0 0.002915 353.34836 353.82379
358.0 0.002793 353.29062 353.88525
361.0 0.002770 353.23273 354.02603
324.0 0.003086 353.17462 354.28992
329.0 0.003040 353.11627 354.72501
340.0 0.002941 353.05777 355.36780
331.0 0.003021 352.99908 356.25394
384.0 0.002604 352.94019 357.27264
327.0 0.003058 352.88107 358.34079
368.0 0.002717 352.82181 359.28577
399.0 0.002506 352.76233 359.91193
371.0 0.002695 352.70267 360.08566
344.0 0.002907 352.64282 359.82770
342.0 0.002924 352.58276 359.30249
353.0 0.002833 352.52255 358.70328
359.0 0.002786 352.46213 358.15802
399.0 0.002506 352.40152 357.69684
369.0 0.002710 352.34076 357.26581
360.0 0.002778 352.27979 356.77997
397.0 0.002519 352.21866 356.19711
344.0 0.002907 352.15735 355.54507
333.0 0.003003 352.09583 354.88779
335.0 0.002985 352.03418 354.28781
334.0 0.002994 351.97232 353.78763
339.0 0.002950 351.91031 353.40506
352.0 0.002841 351.84811 353.13528
359.0 0.002786 351.78577 352.95929
311.0 0.003215 351.72324 352.85330
355.0 0.002817 351.66055 352.79608
354.0 0.002825 351.59769 352.77225
397.0 0.002519 351.53470 352.77240
391.0 0.002558 351.47153 352.79245
380.0 0.002632 351.40820 352.83167
359.0 0.002786 351.34473 352.89233
347.0 0.002882 351.28110 352.97986
365.0 0.002740 351.21732 353.10541
370.0 0.002703 351.15338 353.29199
337.0 0.002967 351.08932 353.58658
331.0 0.003021 351.02509 354.08124
304.0 0.003289 350.96072 355.00735
363.0 0.002755 350.89624 356.50861
357.0 0.002801 350.83160 359.02560
335.0 0.002985 350.76685 363.01843
317.0 0.003155 350.70193 368.90994
360.0 0.002778 350.63690 376.89822
394.0 0.002538 350.57175 386.75006
344.0 0.002907 350.50647 397.69165
389.0 0.002571 350.44110 408.24762
345.0 0.002899 350.37555 416.61755
380.0 0.002632 350.30991 421.11078
366.0 0.002732 350.24417 421.20007
383.0 0.002611 350.17831 418.05292
386.0 0.002591 350.11237 413.77399
359.0 0.002786 350.04626 410.30713
348.0 0.002874 349.98010 408.87704
401.0 0.002494 349.91382 409.83337
363.0 0.002755 349.84744 412.78796
422.0 0.002370 349.78101 417.06265
396.0 0.002525 349.71442 422.10007
429.0 0.002331 349.64780 427.30887
417.0 0.002398 349.58105 431.68405
443.0 0.002257 349.51422 433.80298
428.0 0.002336 349.44733 432.45444
471.0 0.002123 349.38034 427.64374
461.0 0.002169 349.31329 420.79199
416.0 0.002404 349.24619 413.59470
396.0 0.002525 349.17899 407.31870
399.0 0.002506 349.11172 402.30814
392.0 0.002551 349.04440 398.05060
365.0 0.002740 348.97702 393.58237
372.0 0.002688 348.90958 388.20352
377.0 0.002653 348.84207 381.96475
396.0 0.002525 348.77454 375.38614
349.0 0.002865 348.70694 369.13269
370.0 0.002703 348.63928 363.71030
332.0 0.003012 348.57159 359.40131
343.0 0.002915 348.50385 356.23401
388.0 0.002577 348.43610 354.06558
334.0 0.002994 348.36829 352.66238
337.0 0.002967 348.30045 351.78653
358.0 0.002793 348.23257 351.24319
321.0 0.003115 348.16467 350.89615
350.0 0.002857 348.09677 350.66705
318.0 0.003145 348.02884 350.50845
358.0 0.002793 347.96088 350.39816
371.0 0.002695 347.89291 350.32681
389.0 0.002571 347.82489 350.29254
358.0 0.002793 347.75693 350.29932
379.0 0.002639 347.68890 350.35953
359.0 0.002786 347.62091 350.50143
351.0 0.002849 347.55289 350.78360
359.0 0.002786 347.48486 351.31897
327.0 0.003058 347.41687 352.30524
375.0 0.002667 347.34888 354.05399
366.0 0.002732 347.28088 356.99219
393.0 0.002545 347.21289 361.60934
382.0 0.002618 347.14493 368.33313
416.0 0.002404 347.07697 377.32355
417.0 0.002398 347.00903 388.27328
462.0 0.002165 346.94113 400.25327
498.0 0.002008 346.87323 411.70947
455.0 0.002198 346.80536 420.66776
489.0 0.002045 346.73752 425.31528
505.0 0.001980 346.66974 425.04169
463.0 0.002160 346.60196 420.93616
445.0 0.002247 346.53421 415.00580
443.0 0.002257 346.46652 409.02072
417.0 0.002398 346.39886 403.91342
398.0 0.002513 346.33124 399.64432
413.0 0.002421 346.26364 395.45004
399.0 0.002506 346.19614 390.46985
408.0 0.002451 346.12866 384.42365
417.0 0.002398 346.06122 377.65491
378.0 0.002646 345.99384 370.96182
381.0 0.002625 345.92651 364.92194
384.0 0.002604 345.85925 359.98605
389.0 0.002571 345.79205 356.38358
349.0 0.002865 345.72491 354.17490
339.0 0.002950 345.65784 353.33847
336.0 0.002976 345.59082 353.83798
359.0 0.002786 345.52386 355.77621
338.0 0.002959 345.45697 359.17984
396.0 0.002525 345.39017 364.01154
390.0 0.002564 345.32339 370.01834
428.0 0.002336 345.25671 376.63416
446.0 0.002242 345.19012 382.90601
453.0 0.002208 345.12360 387.84686
462.0 0.002165 345.05716 390.37509
471.0 0.002123 344.99078 390.13821
515.0 0.001942 344.92450 387.73285
463.0 0.002160 344.85831 384.27991
416.0 0.002404 344.79218 380.77997
419.0 0.002387 344.72614 377.74521
410.0 0.002439 344.66019 375.24146
408.0 0.002451 344.59430 372.82385
392.0 0.002551 344.52853 369.99191
397.0 0.002519 344.46286 366.54590
412.0 0.002427 344.39725 362.67944
374.0 0.002674 344.33176 358.76248
377.0 0.002653 344.26630 355.15082
317.0 0.003155 344.20099 352.09308
359.0 0.002786 344.13574 349.69916
341.0 0.002933 344.07062 347.95297
310.0 0.003226 344.00558 346.75162
342.0 0.002924 343.94061 345.95746
333.0 0.003003 343.87576 345.43823
315.0 0.003175 343.81100 345.08960
328.0 0.003049 343.74637 344.84033
338.0 0.002959 343.68179 344.64706
332.0 0.003012 343.61731 344.48575
325.0 0.003077 343.55298 344.34329
331.0 0.003021 343.48868 344.21338
333.0 0.003003 343.42453 344.09265
355.0 0.002817 343.36044 343.97913
382.0 0.002618 343.29651 343.87143
359.0 0.002786 343.23264 343.76865
340.0 0.002941 343.16885 343.67017
333.0 0.003003 343.10519 343.57690
355.0 0.002817 343.04163 343.48523
361.0 0.002770 342.97815 343.39618
365.0 0.002740 342.91479 343.30969
346.0 0.002890 342.85153 343.22531
340.0 0.002941 342.78833 343.14267
338.0 0.002959 342.72528 343.06189
322.0 0.003106 342.66229 342.98337
367.0 0.002725 342.59943 342.84036
344.0 0.002907 342.53665 342.76340
343.0 0.002915 342.47397 342.68991
350.0 0.002857 342.41138 342.61725
326.0 0.003067 342.34888 342.54544
332.0 0.003012 342.28653 342.47443
322.0 0.003106 342.22421 342.40414
352.0 0.002841 342.16202 342.30179
375.0 0.002667 342.09988 342.23218
351.0 0.002849 342.03787 342.16516
327.0 0.003058 341.97595 342.09821
359.0 0.002786 341.91409 342.03162
318.0 0.003145 341.85236 341.96561
360.0 0.002778 341.79071 341.89987
340.0 0.002941 341.72913 341.83453
329.0 0.003040 341.66766 341.76956
320.0 0.003125 341.60623 341.70490
328.0 0.003049 341.54492 341.64059
334.0 0.002994 341.48370 341.57657
319.0 0.003135 341.42255 341.51285
320.0 0.003125 341.36148 341.44928
324.0 0.003086 341.30048 341.38608
337.0 0.002967 341.23956 341.32315
317.0 0.003155 341.17871 341.26044
355.0 0.002817 341.11795 341.19800
330.0 0.003030 341.05725 341.09622
314.0 0.003185 340.99661 341.03540
331.0 0.003021 340.93607 340.97482
312.0 0.003205 340.87555 340.91449
350.0 0.002857 340.81512 340.85422
334.0 0.002994 340.75476 340.79419
311.0 0.003215 340.69446 340.73441
342.0 0.002924 340.63422 340.67477
356.0 0.002809 340.57404 340.59604
346.0 0.002890 340.51389 340.53754
328.0 0.003049 340.45383 340.47931
337.0 0.002967 340.39377 340.42136
335.0 0.002985 340.33380 340.36386
362.0 0.002762 340.27386 340.30701
353.0 0.002833 340.21396 340.25116
355.0 0.002817 340.15411 340.19705
365.0 0.002740 340.09430 340.14590
336.0 0.002976 340.03455 340.09988
360.0 0.002778 339.97479 340.06161
322.0 0.003106 339.91510 340.03479
312.0 0.003205 339.85544 340.02283
373.0 0.002681 339.79578 340.02798
339.0 0.002950 339.73618 340.05011
323.0 0.003096 339.67654 340.08508
335.0 0.002985 339.61697 340.12421
325.0 0.003077 339.55740 340.15512
323.0 0.003096 339.49786 340.16333
341.0 0.002933 339.43832 340.13739
315.0 0.003175 339.37878 340.07654
335.0 0.002985 339.31927 339.99197
320.0 0.003125 339.25974 339.90082
335.0 0.002985 339.20023 339.81982
325.0 0.003077 339.14072 339.76184
366.0 0.002732 339.08118 339.73654
339.0 0.002950 339.02164 339.75085
304.0 0.003289 338.96210 339.81204
325.0 0.003077 338.90253 339.92786
316.0 0.003165 338.84296 340.10352
311.0 0.003215 338.78336 340.33383
357.0 0.002801 338.72372 340.61047
331.0 0.003021 338.66409 340.86935
374.0 0.002674 338.60440 341.07306
341.0 0.002933 338.54471 341.17404
342.0 0.002924 338.48492 341.15460
342.0 0.002924 338.42514 341.04358
338.0 0.002959 338.36533 340.90067
307.0 0.003257 338.30542 340.78403
350.0 0.002857 338.24551 340.73428
363.0 0.002755 338.18552 340.73923
338.0 0.002959 338.12549 340.77322
365.0 0.002740 338.06540 340.78336
364.0 0.002747 338.00525 340.71796
368.0 0.002717 337.94504 340.57181
373.0 0.002681 337.88474 340.30484
391.0 0.002558 337.82437 339.97879
345.0 0.002899 337.76395 339.63559
300.0 0.003333 337.70340 339.31888
387.0 0.002584 337.64282 339.05057
367.0 0.002725 337.58212 338.83185
328.0 0.003049 337.52136 338.64734
336.0 0.002976 337.46051 338.48633
320.0 0.003125 337.39954 338.30945
329.0 0.003040 337.33847 338.12433
360.0 0.002778 337.27731 337.93835
353.0 0.002833 337.21600 337.75720
318.0 0.003145 337.15463 337.59036
351.0 0.002849 337.09314 337.44290
337.0 0.002967 337.03152 337.31616
317.0 0.003155 336.96979 337.20853
302.0 0.003311 336.90793 337.11667
321.0 0.003115 336.84595 337.03650
315.0 0.003175 336.78381 336.96408
332.0 0.003012 336.72159 336.89673
342.0 0.002924 336.65918 336.83255
330.0 0.003030 336.59662 336.77032
343.0 0.002915 336.53397 336.70911
328.0 0.003049 336.47113 336.64893
330.0 0.003030 336.40817 336.58942
338.0 0.002959 336.34503 336.53055
343.0 0.002915 336.28171 336.47220
347.0 0.002882 336.21826 336.41449
344.0 0.002907 336.15463 336.35730
315.0 0.003175 336.09085 336.30084
352.0 0.002841 336.02686 336.24493
326.0 0.003067 335.96271 336.18979
338.0 0.002959 335.89841 336.13547
307.0 0.003257 335.83389 336.08197
352.0 0.002841 335.76920 336.02948
336.0 0.002976 335.70432 335.97800
328.0 0.003049 335.63922 335.92776
321.0 0.003115 335.57394 335.87903
326.0 0.003067 335.50845 335.83179
308.0 0.003247 335.44278 335.78647
327.0 0.003058 335.37686 335.74323
337.0 0.002967 335.31076 335.70255
344.0 0.002907 335.24445 335.66486
332.0 0.003012 335.17792 335.63058
307.0 0.003257 335.11115 335.60068
335.0 0.002985 335.04416 335.57626
300.0 0.003333 334.97696 335.55914
291.0 0.003436 334.90955 335.55301
314.0 0.003185 334.84183 335.56445
318.0 0.003145 334.77393 335.60617
339.0 0.002950 334.70575 335.70215
294.0 0.003401 334.63739 335.88898
334.0 0.002994 334.56873 336.22647
377.0 0.002653 334.49985 336.79581
350.0 0.002857 334.43066 337.69290
339.0 0.002950 334.36127 339.01193
320.0 0.003125 334.29160 340.81284
331.0 0.003021 334.22165 343.08459
353.0 0.002833 334.15149 345.71689
344.0 0.002907 334.08099 348.47900
360.0 0.002778 334.01028 351.04077
370.0 0.002703 333.93927 353.01691
361.0 0.002770 333.86798 354.09735
384.0 0.002604 333.79639 354.23486
368.0 0.002717 333.72452 353.72867
411.0 0.002433 333.65240 353.09091
366.0 0.002732 333.57996 352.85260
354.0 0.002825 333.50723 353.42175
398.0 0.002513 333.43420 355.01947
368.0 0.002717 333.36090 357.63843
371.0 0.002695 333.28726 361.05795
372.0 0.002688 333.21335 364.91092
362.0 0.002762 333.13913 368.74707
392.0 0.002551 333.06458 372.03043
379.0 0.002639 332.98975 374.15988
364.0 0.002747 332.91455 374.65561
374.0 0.002674 332.83908 373.44925
389.0 0.002571 332.76328 370.95602
397.0 0.002519 332.68716 367.83496
392.0 0.002551 332.61072 364.70261
349.0 0.002865 332.53394 361.94592
349.0 0.002865 332.45682 359.64755
332.0 0.003012 332.37939 357.60751
318.0 0.003145 332.30164 355.48709
369.0 0.002710 332.22354 353.03195
382.0 0.002618 332.14508 350.20526
361.0 0.002770 332.06628 347.17545
326.0 0.003067 331.98718 344.12308
340.0 0.002941 331.90771 341.31110
346.0 0.002890 331.82791 338.85910
337.0 0.002967 331.74771 336.87021
337.0 0.002967 331.66721 335.34811
304.0 0.003289 331.58633 334.23901
332.0 0.003012 331.50510 333.45828
306.0 0.003268 331.42355 332.92838
328.0 0.003049 331.34158 332.55005
346.0 0.002890 331.25928 332.28625
357.0 0.002801 331.17664 332.07428
333.0 0.003003 331.09357 331.93948
305.0 0.003279 331.01019 331.78802
310.0 0.003226 330.92642 331.65042
357.0 0.002801 330.84229 331.52203
335.0 0.002985 330.75778 331.40039
327.0 0.003058 330.67291 331.28403
316.0 0.003165 330.58768 331.17200
333.0 0.003003 330.50201 331.06348
305.0 0.003279 330.41602 330.97787
318.0 0.003145 330.32965 330.87585
296.0 0.003378 330.24286 330.77640
322.0 0.003106 330.15573 330.67947
322.0 0.003106 330.06818 330.58487
361.0 0.002770 329.98029 330.49304
328.0 0.003049 329.89197 330.40454
330.0 0.003030 329.80328 330.32089
332.0 0.003012 329.71420 330.24472
293.0 0.003413 329.62473 330.18002
303.0 0.003300 329.53488 330.13254
339.0 0.002950 329.44464 330.10947
353.0 0.002833 329.35400 330.11838
313.0 0.003195 329.26297 330.16531
324.0 0.003086 329.17157 330.25192
333.0 0.003003 329.07971 330.37268
330.0 0.003030 328.98749 330.51379
321.0 0.003115 328.89490 330.65228
321.0 0.003115 328.80185 330.75842
336.0 0.002976 328.70847 330.80215
341.0 0.002933 328.61465 330.76404
301.0 0.003322 328.52045 330.64758
326.0 0.003067 328.42581 330.47726
342.0 0.002924 328.33081 330.28528
322.0 0.003106 328.23538 330.09763
318.0 0.003145 328.13956 329.92856
339.0 0.002950 328.04337 329.77829
345.0 0.002899 327.94672 329.63605
287.0 0.003484 327.84970 329.48743
329.0 0.003040 327.75223 329.32336
338.0 0.002959 327.65439 329.14621
303.0 0.003300 327.55618 328.96365
343.0 0.002915 327.45749 328.77460
351.0 0.002849 327.35846 328.61566
354.0 0.002825 327.25900 328.48032
336.0 0.002976 327.15912 328.37247
381.0 0.002625 327.05884 328.29269
312.0 0.003205 326.95816 328.24014
343.0 0.002915 326.85709 328.21381
332.0 0.003012 326.75558 328.21362
328.0 0.003049 326.65369 328.23761
340.0 0.002941 326.55139 328.30988
315.0 0.003175 326.44867 328.44693
325.0 0.003077 326.34558 328.69174
365.0 0.002740 326.24203 329.09448
329.0 0.003040 326.13809 329.81787
347.0 0.002882 326.03378 331.00400
367.0 0.002725 325.92902 332.86539
320.0 0.003125 325.82391 335.65140
369.0 0.002710 325.71832 339.58716
340.0 0.002941 325.61237 344.81384
316.0 0.003165 325.50604 351.30792
353.0 0.002833 325.39926 358.80392
324.0 0.003086 325.29211 366.82993
334.0 0.002994 325.18454 374.53635
321.0 0.003115 325.07657 381.07388
332.0 0.003012 324.96820 385.73422
374.0 0.002674 324.85944 388.26794
355.0 0.002817 324.75027 389.00671
352.0 0.002841 324.64069 388.80081
361.0 0.002770 324.53070 388.75015
393.0 0.002545 324.42038 389.80679
368.0 0.002717 324.30957 392.35895
369.0 0.002710 324.19846 396.19003
408.0 0.002451 324.08688 400.48669
503.0 0.001988 323.97491 404.09232
444.0 0.002252 323.86258 405.75131
461.0 0.002169 323.74985 404.55600
448.0 0.002232 323.63672 400.32401
472.0 0.002119 323.52319 393.76508
438.0 0.002283 323.40930 386.12350
389.0 0.002571 323.29498 378.61887
363.0 0.002755 323.18030 372.07755
377.0 0.002653 323.06522 366.81549
359.0 0.002786 322.94974 362.65439
348.0 0.002874 322.83392 359.05374
338.0 0.002959 322.71768 355.43079
351.0 0.002849 322.60107 351.44296
386.0 0.002591 322.48407 347.10507
349.0 0.002865 322.36670 342.65323
340.0 0.002941 322.24893 338.38486
336.0 0.002976 322.13083 334.55582
361.0 0.002770 322.01230 331.33005
308.0 0.003247 321.89337 328.77023
298.0 0.003356 321.77414 326.84247
317.0 0.003155 321.65451 325.45132
322.0 0.003106 321.53452 324.47449
306.0 0.003268 321.41412 323.79169
337.0 0.002967 321.29343 323.30432
308.0 0.003247 321.17227 322.93964
293.0 0.003413 321.05078 322.64975
344.0 0.002907 320.92899 322.40555
327.0 0.003058 320.80676 322.19052
325.0 0.003077 320.68423 321.99667
337.0 0.002967 320.56128 321.82034
334.0 0.002994 320.43799 321.66095
297.0 0.003367 320.31436 321.52219
346.0 0.002890 320.19037 321.40601
317.0 0.003155 320.06604 321.31613
342.0 0.002924 319.94135 321.25488
335.0 0.002985 319.81628 321.22198
319.0 0.003135 319.69092 321.21332
321.0 0.003115 319.56516 321.21973
309.0 0.003236 319.43912 321.22711
348.0 0.002874 319.31268 321.21823
301.0 0.003322 319.18588 321.17670
306.0 0.003268 319.05881 321.09180
324.0 0.003086 318.93137 320.96634
314.0 0.003185 318.80362 320.81558
337.0 0.002967 318.67548 320.65915
343.0 0.002915 318.54703 320.51453
328.0 0.003049 318.41830 320.39352
329.0 0.003040 318.28918 320.30313
327.0 0.003058 318.15979 320.24866
328.0 0.003049 318.03003 320.24170
311.0 0.003215 317.89996 320.37909
349.0 0.002865 317.76959 320.58856
343.0 0.002915 317.63889 321.03525
304.0 0.003289 317.50790 321.86160
337.0 0.002967 317.37656 323.24802
366.0 0.002732 317.24490 325.39230
330.0 0.003030 317.11301 328.46823
307.0 0.003257 316.98071 332.57022
356.0 0.002809 316.84821 337.64368
380.0 0.002632 316.71533 343.47391
397.0 0.002519 316.58215 349.52567
416.0 0.002404 316.44873 355.16766
432.0 0.002315 316.31494 359.62988
407.0 0.002457 316.18094 362.22723
429.0 0.002331 316.04660 362.68277
463.0 0.002160 315.91199 361.32681
416.0 0.002404 315.77707 358.92212
377.0 0.002653 315.64185 356.38205
416.0 0.002404 315.50641 354.33606
384.0 0.002604 315.37064 353.16983
409.0 0.002445 315.23465 352.82739
366.0 0.002732 315.09833 352.94836
366.0 0.002732 314.96179 353.00360
411.0 0.002433 314.82492 352.52197
395.0 0.002532 314.68784 351.22107
396.0 0.002525 314.55045 349.04062
386.0 0.002591 314.41278 346.04544
364.0 0.002747 314.27490 342.47702
382.0 0.002618 314.13675 338.71207
360.0 0.002778 313.99838 335.21295
333.0 0.003003 313.85968 332.21835
309.0 0.003236 313.72083 329.84082
329.0 0.003040 313.58163 328.03192
350.0 0.002857 313.44226 326.62305
319.0 0.003135 313.30261 325.38531
332.0 0.003012 313.16272 324.12177
301.0 0.003322 313.02264 322.72058
324.0 0.003086 312.88226 321.24231
307.0 0.003257 312.74173 319.73737
319.0 0.003135 312.60089 318.29910
363.0 0.002755 312.45984 317.00342
310.0 0.003226 312.31863 315.89871
314.0 0.003185 312.17715 315.00140
311.0 0.003215 312.03549 314.30127
309.0 0.003236 311.89359 313.76923
291.0 0.003436 311.75146 313.36899
306.0 0.003268 311.60916 313.06653
323.0 0.003096 311.46661 312.82819
325.0 0.003077 311.32394 312.63385
297.0 0.003367 311.18100 312.46863
276.0 0.00362 311.03787 312.32373
296.0 0.003378 310.89459 312.19434
287.0 0.003484 310.75107 312.07794
358.0 0.002793 310.60742 311.97400
293.0 0.003413 310.46353 311.88284
336.0 0.002976 310.31946 311.80563
308.0 0.003247 310.17526 311.74475
299.0 0.003344 310.03085 311.70395
266.0 0.00376 309.88632 311.69022
290.0 0.003448 309.74158 311.71649
286.0 0.003497 309.59665 311.80688
330.0 0.003030 309.45163 312.00500
295.0 0.003390 309.30637 312.38684
309.0 0.003236 309.16104 313.07562
330.0 0.003030 309.01550 314.25751
343.0 0.002915 308.86981 316.18781
340.0 0.002941 308.72403 319.17886
330.0 0.003030 308.57806 323.56531
317.0 0.003155 308.43198 329.61993
299.0 0.003344 308.28574 337.46286
338.0 0.002959 308.13937 346.94623
327.0 0.003058 307.99292 357.57690
332.0 0.003012 307.84628 368.50070
418.0 0.002392 307.69958 378.53137
367.0 0.002725 307.55273 386.32059
359.0 0.002786 307.40576 390.68375
389.0 0.002571 307.25873 391.13202
371.0 0.002695 307.11154 388.18073
371.0 0.002695 306.96429 383.07919
337.0 0.002967 306.81689 377.20877
363.0 0.002755 306.66946 371.63699
319.0 0.003135 306.52191 366.91052
314.0 0.003185 306.37430 363.01489
326.0 0.003067 306.22656 359.49353
336.0 0.002976 306.07877 355.64172
353.0 0.002833 305.93091 350.97290
316.0 0.003165 305.78296 345.41415
316.0 0.003165 305.63498 339.26450
328.0 0.003049 305.48688 332.98618
328.0 0.003049 305.33881 326.98907
328.0 0.003049 305.19061 321.69098
301.0 0.003322 305.04239 317.26352
297.0 0.003367 304.89410 313.77277
276.0 0.00362 304.74576 311.14639
292.0 0.003425 304.59744 309.25394
325.0 0.003077 304.44904 307.92914
300.0 0.003333 304.30066 307.01205
308.0 0.003247 304.15219 306.35260
318.0 0.003145 304.00375 305.89038
284.0 0.00352 303.85526 305.54501
311.0 0.003215 303.70676 305.28223
282.0 0.00355 303.55829 305.07504
290.0 0.003448 303.40976 304.95160
294.0 0.003401 303.26132 304.90826
303.0 0.003300 303.11282 304.95871
279.0 0.00358 302.96432 305.11432
319.0 0.003135 302.81589 305.37750
302.0 0.003311 302.66742 305.73605
308.0 0.003247 302.51904 306.15842
304.0 0.003289 302.37067 306.59381
299.0 0.003344 302.22229 306.96750
291.0 0.003436 302.07401 307.21768
309.0 0.003236 301.92572 307.27451
321.0 0.003115 301.77756 307.11542
298.0 0.003356 301.62939 306.77264
329.0 0.003040 301.48126 306.31656
292.0 0.003425 301.33328 305.82321
327.0 0.003058 301.18530 305.35019
283.0 0.00353 301.03741 304.94745
302.0 0.003311 300.88962 304.57361
289.0 0.003460 300.74188 304.22470
287.0 0.003484 300.59427 303.85895
293.0 0.003413 300.44672 303.44940
269.0 0.00372 300.29932 302.99088
281.0 0.00356 300.15198 302.49857
305.0 0.003279 300.00476 301.99768
293.0 0.003413 299.85770 301.51331
299.0 0.003344 299.71069 301.07541
258.0 0.00388 299.56387 300.67676
285.0 0.00351 299.41714 300.33243
284.0 0.00352 299.27054 300.03809
334.0 0.002994 299.12415 299.78790
291.0 0.003436 298.97787 299.57278
297.0 0.003367 298.83179 299.38370
287.0 0.003484 298.68579 299.21310
281.0 0.00356 298.53998 299.05518
306.0 0.003268 298.39438 298.90637
312.0 0.003205 298.24893 298.76410
293.0 0.003413 298.10373 298.62732
270.0 0.00370 297.95865 298.49585
282.0 0.00355 297.81378 298.37021
310.0 0.003226 297.66910 298.25220
283.0 0.00353 297.52463 298.14502
326.0 0.003067 297.38043 298.05536
310.0 0.003226 297.23639 297.99414
296.0 0.003378 297.09262 297.98001
282.0 0.00355 296.94904 298.04150
331.0 0.003021 296.80573 298.21976
283.0 0.00353 296.66263 298.56796
279.0 0.00358 296.51984 299.14801
304.0 0.003289 296.37726 300.02002
287.0 0.003484 296.23492 301.16159
315.0 0.003175 296.09290 302.71494
279.0 0.00358 295.95114 304.56635
326.0 0.003067 295.80969 306.60641
314.0 0.003185 295.66849 308.65775
330.0 0.003030 295.52762 310.48853
338.0 0.002959 295.38699 311.84546
303.0 0.003300 295.24673 312.51886
327.0 0.003058 295.10675 312.43716
349.0 0.002865 294.96707 311.67935
328.0 0.003049 294.82779 310.55103
314.0 0.003185 294.68878 309.27789
333.0 0.003003 294.55014 308.06223
298.0 0.003356 294.41183 307.01114
271.0 0.00369 294.27386 306.13092
302.0 0.003311 294.13632 305.33963
282.0 0.00355 293.99908 304.51093
323.0 0.003096 293.86227 303.53912
306.0 0.003268 293.72577 302.39093
297.0 0.003367 293.58969 301.10944
304.0 0.003289 293.45404 299.77725
317.0 0.003155 293.31873 298.48163
280.0 0.00357 293.18387 297.29700
298.0 0.003356 293.04938 296.27286
283.0 0.00353 292.91534 295.43365
316.0 0.003165 292.78177 294.78000
345.0 0.002899 292.64856 294.29724
292.0 0.003425 292.51584 293.96548
293.0 0.003413 292.38354 293.76984
284.0 0.00352 292.25168 293.70935
301.0 0.003322 292.12036 293.80334
329.0 0.003040 291.98944 294.09482
281.0 0.00356 291.85904 294.64923
280.0 0.00357 291.72906 295.54828
286.0 0.003497 291.59958 296.87485
277.0 0.00361 291.47067 298.69073
302.0 0.003311 291.34219 301.01202
307.0 0.003257 291.21426 303.77649
313.0 0.003195 291.08682 306.84567
332.0 0.003012 290.95990 309.97348
377.0 0.002653 290.83356 312.83749
372.0 0.002688 290.70770 315.07776
346.0 0.002890 290.58243 316.38074
311.0 0.003215 290.45770 316.60657
357.0 0.002801 290.33350 315.85934
356.0 0.002809 290.20990 314.43408
352.0 0.002841 290.08682 312.68527
305.0 0.003279 289.96439 310.92584
309.0 0.003236 289.84250 309.34796
308.0 0.003247 289.72119 308.00702
323.0 0.003096 289.60052 306.82755
296.0 0.003378 289.48041 305.64969
318.0 0.003145 289.36096 304.31396
306.0 0.003268 289.24210 302.73914
314.0 0.003185 289.12390 300.94806
294.0 0.003401 289.00629 299.03436
296.0 0.003378 288.88934 297.11673
269.0 0.00372 288.77301 295.30890
315.0 0.003175 288.65735 293.69675
267.0 0.00375 288.54236 292.33102
323.0 0.003096 288.42801 291.22559
327.0 0.003058 288.31436 290.36407
324.0 0.003086 288.20135 289.71115
300.0 0.003333 288.08908 289.22308
271.0 0.00369 287.97745 288.85672
306.0 0.003268 287.86655 288.57532
288.0 0.003472 287.75632 288.35004
272.0 0.00368 287.64682 288.16098
279.0 0.00358 287.53802 287.99454
280.0 0.00357 287.42996 287.84250
308.0 0.003247 287.32263 287.69983
291.0 0.003436 287.21603 287.56387
281.0 0.00356 287.11017 287.43274
306.0 0.003268 287.00507 287.30557
298.0 0.003356 286.90067 287.18188
288.0 0.003472 286.79706 287.06140
283.0 0.00353 286.69421 286.94382
293.0 0.003413 286.59213 286.82953
305.0 0.003279 286.49084 286.71854
309.0 0.003236 286.39029 286.61133
279.0 0.00358 286.29056 286.50861
298.0 0.003356 286.19159 286.41098
288.0 0.003472 286.09348 286.31903
295.0 0.003390 285.99609 286.21878
296.0 0.003378 285.89954 286.13873
290.0 0.003448 285.80380 286.06339
276.0 0.00362 285.70889 285.99097
268.0 0.00373 285.61481 285.91888
286.0 0.003497 285.52155 285.84418
268.0 0.00373 285.42908 285.76370
299.0 0.003344 285.33749 285.67517
272.0 0.00368 285.24670 285.57831
314.0 0.003185 285.15683 285.46991
268.0 0.00373 285.06775 285.36377
266.0 0.00376 284.97952 285.25696
259.0 0.00386 284.89218 285.15234
319.0 0.003135 284.80566 285.05646
262.0 0.00382 284.72006 284.95947
287.0 0.003484 284.63528 284.86359
276.0 0.00362 284.55139 284.76825
281.0 0.00356 284.46841 284.67206
284.0 0.00352 284.38626 284.57468
281.0 0.00356 284.30505 284.47647
276.0 0.00362 284.22470 284.37839
286.0 0.003497 284.14523 284.28156
330.0 0.003030 284.06668 284.18698
286.0 0.003497 283.98901 284.09518
307.0 0.003257 283.91223 284.00662
250.0 0.00400 283.83640 283.92139
264.0 0.00379 283.76141 283.83917
293.0 0.003413 283.68741 283.75967
252.0 0.00397 283.61426 283.68265
265.0 0.00377 283.54205 283.60751
289.0 0.003460 283.47073 283.53406
263.0 0.00380 283.40036 283.46204
301.0 0.003322 283.33090 283.39133
309.0 0.003236 283.26236 283.32169
284.0 0.00352 283.19476 283.25330
265.0 0.00377 283.12805 283.16595
290.0 0.003448 283.06229 283.10016
274.0 0.00365 282.99747 283.03317
264.0 0.00379 282.93356 282.96939
300.0 0.003333 282.87057 282.90671
273.0 0.00366 282.80856 282.84497
270.0 0.00370 282.74744 282.78424
302.0 0.003311 282.68726 282.72449
279.0 0.00358 282.62802 282.66580
280.0 0.00357 282.56970 282.59811
310.0 0.003226 282.51233 282.54175
298.0 0.003356 282.45590 282.48529
294.0 0.003401 282.40039 282.43097
264.0 0.00379 282.34579 282.37759
289.0 0.003460 282.29218 282.32538
286.0 0.003497 282.23947 282.27414
283.0 0.00353 282.18768 282.22397
296.0 0.003378 282.13684 282.17490
269.0 0.00372 282.08691 282.12686
295.0 0.003390 282.03793 282.07990
284.0 0.00352 281.98987 282.03406
278.0 0.00360 281.94272 281.98938
305.0 0.003279 281.89651 281.94580
283.0 0.00353 281.85120 281.90335
287.0 0.003484 281.80682 281.86218
303.0 0.003300 281.76337 281.82217
218.0 0.00459 281.72083 281.78345
291.0 0.003436 281.67920 281.74606
296.0 0.003378 281.63849 281.71002
265.0 0.00377 281.59866 281.67542
290.0 0.003448 281.55975 281.64236
287.0 0.003484 281.52176 281.61084
275.0 0.00364 281.48465 281.58112
252.0 0.00397 281.44843 281.55331
253.0 0.00395 281.41312 281.52774
287.0 0.003484 281.37866 281.50485
263.0 0.00380 281.34509 281.48550
297.0 0.003367 281.31241 281.47131
284.0 0.00352 281.28061 281.46475
295.0 0.003390 281.24966 281.47028
290.0 0.003448 281.21957 281.49472
279.0 0.00358 281.19034 281.54871
281.0 0.00356 281.16199 281.64676
298.0 0.003356 281.13446 281.80774
290.0 0.003448 281.10779 282.05356
292.0 0.003425 281.08194 282.40643
300.0 0.003333 281.05692 282.88422
262.0 0.00382 281.03275 283.49435
264.0 0.00379 281.00937 284.22900
278.0 0.00360 280.98682 285.05841
310.0 0.003226 280.96506 285.93073
294.0 0.003401 280.94409 286.77240
306.0 0.003268 280.92395 287.49521
290.0 0.003448 280.90457 288.01044
296.0 0.003378 280.88599 288.25348
309.0 0.003236 280.86816 288.21246
273.0 0.00366 280.85107 287.93613
285.0 0.00351 280.83478 287.51190
314.0 0.003185 280.81921 287.03262
305.0 0.003279 280.80438 286.57220
283.0 0.00353 280.79028 286.17294
276.0 0.00362 280.77692 285.84302
273.0 0.00366 280.76425 285.55917
322.0 0.003106 280.75229 285.27823
310.0 0.003226 280.74103 284.95633
273.0 0.00366 280.73044 284.56860
306.0 0.003268 280.72055 284.11771
273.0 0.00366 280.71130 283.62680
278.0 0.00360 280.70273 283.12729
263.0 0.00380 280.69479 282.64923
293.0 0.003413 280.68753 282.21701
284.0 0.00352 280.68085 281.84674
263.0 0.00380 280.67480 281.54523
283.0 0.00353 280.66937 281.31067
284.0 0.00352 280.66452 281.13605
267.0 0.00375 280.66028 281.01065
307.0 0.003257 280.65659 280.92322
289.0 0.003460 280.65347 280.86331
265.0 0.00377 280.65091 280.82254
320.0 0.003125 280.64890 280.79428
272.0 0.00368 280.64737 280.77426
266.0 0.00376 280.64639 280.75955
293.0 0.003413 280.64594 280.74991
263.0 0.00380 280.64597 280.74121
312.0 0.003205 280.64645 280.73438
272.0 0.00368 280.64743 280.72891
326.0 0.003067 280.64886 280.72467
277.0 0.00361 280.65073 280.72153
279.0 0.00358 280.65305 280.71939
252.0 0.00397 280.65579 280.71808
244.0 0.00410 280.65891 280.71756
293.0 0.003413 280.66245 280.71780
256.0 0.00391 280.66635 280.71939
289.0 0.003460 280.67062 280.72095
271.0 0.00369 280.67526 280.72311
305.0 0.003279 280.68024 280.72583
303.0 0.003300 280.68555 280.72913
283.0 0.00353 280.69116 280.73270
291.0 0.003436 280.69708 280.73697
276.0 0.00362 280.70328 280.74158
274.0 0.00365 280.70975 280.74649
263.0 0.00380 280.71649 280.75192
275.0 0.00364 280.72345 280.75760
268.0 0.00373 280.73065 280.76367
271.0 0.00369 280.73810 280.77002
320.0 0.003125 280.74573 280.77661
262.0 0.00382 280.75354 280.78354
262.0 0.00382 280.76151 280.79065
275.0 0.00364 280.76965 280.79803
277.0 0.00361 280.77795 280.80563
258.0 0.00388 280.78638 280.81335
299.0 0.003344 280.79489 280.82132
276.0 0.00362 280.80353 280.82941
279.0 0.00358 280.81223 280.83771
293.0 0.003413 280.82101 280.84607
287.0 0.003484 280.82986 280.85455
300.0 0.003333 280.83875 280.86307
290.0 0.003448 280.84766 280.87164
286.0 0.003497 280.85657 280.88040
296.0 0.003378 280.86545 280.88898
265.0 0.00377 280.87436 280.89777
282.0 0.00355 280.88321 280.90646
304.0 0.003289 280.89200 280.91522
274.0 0.00365 280.90073 280.92392
277.0 0.00361 280.90939 280.93265
288.0 0.003472 280.91794 280.94128
295.0 0.003390 280.92639 280.94980
272.0 0.00368 280.93472 280.96753
298.0 0.003356 280.94290 280.97617
287.0 0.003484 280.95093 280.98468
277.0 0.00361 280.95877 280.99316
266.0 0.00376 280.96643 281.00146
301.0 0.003322 280.97391 281.00974
260.0 0.00385 280.98114 281.01773
276.0 0.00362 280.98816 281.02567
283.0 0.00353 280.99493 281.03354
268.0 0.00373 281.00140 281.04111
312.0 0.003205 281.00763 281.05331
270.0 0.00370 281.01358 281.06082
299.0 0.003344 281.01920 281.06833
272.0 0.00368 281.02451 281.07584
286.0 0.003497 281.02948 281.08337
304.0 0.003289 281.03409 281.09134
283.0 0.00353 281.03836 281.10004
274.0 0.00365 281.04224 281.10999
294.0 0.003401 281.04572 281.12189
268.0 0.00373 281.04877 281.13654
245.0 0.00408 281.05142 281.15540
274.0 0.00365 281.05365 281.17950
293.0 0.003413 281.05542 281.21436
286.0 0.003497 281.05673 281.25235
271.0 0.00369 281.05756 281.29785
264.0 0.00379 281.05786 281.35617
284.0 0.00352 281.05768 281.41232
295.0 0.003390 281.05701 281.46909
255.0 0.00392 281.05579 281.52994
297.0 0.003367 281.05402 281.58713
262.0 0.00382 281.05170 281.63785
265.0 0.00377 281.04880 281.68188
290.0 0.003448 281.04532 281.72433
281.0 0.00356 281.04123 281.76755
269.0 0.00372 281.03656 281.82178
276.0 0.00362 281.03125 281.89618
278.0 0.00360 281.02530 282.00208
264.0 0.00379 281.01871 282.13800
284.0 0.00352 281.01147 282.30765
265.0 0.00377 281.00357 282.50433
272.0 0.00368 280.99500 282.71524
254.0 0.00394 280.98572 282.92194
265.0 0.00377 280.97574 283.10239
268.0 0.00373 280.96503 283.23380
285.0 0.00351 280.95361 283.29773
272.0 0.00368 280.94147 283.28632
284.0 0.00352 280.92859 283.20706
305.0 0.003279 280.91495 283.07928
282.0 0.00355 280.90054 282.92758
300.0 0.003333 280.88535 282.77405
278.0 0.00360 280.86938 282.63391
275.0 0.00364 280.85263 282.51413
295.0 0.003390 280.83508 282.41327
294.0 0.003401 280.81671 282.32281
289.0 0.003460 280.79752 282.23068
260.0 0.00385 280.77753 282.12607
274.0 0.00365 280.75668 282.00342
305.0 0.003279 280.73499 281.86438
267.0 0.00375 280.71246 281.71515
266.0 0.00376 280.68906 281.56360
274.0 0.00365 280.66483 281.41751
269.0 0.00372 280.63971 281.28299
297.0 0.003367 280.61371 281.16409
293.0 0.003413 280.58682 281.06259
295.0 0.003390 280.55905 280.97824
280.0 0.00357 280.53036 280.90958
287.0 0.003484 280.50082 280.85449
286.0 0.003497 280.47037 280.81058
302.0 0.003311 280.43900 280.77591
286.0 0.003497 280.40668 280.74927
296.0 0.003378 280.37350 280.73053
276.0 0.00362 280.33936 280.72092
267.0 0.00375 280.30429 280.72391
289.0 0.003460 280.26831 280.74545
303.0 0.003300 280.23138 280.79559
269.0 0.00372 280.19354 280.88934
271.0 0.00369 280.15472 281.04709
278.0 0.00360 280.11502 281.29535
292.0 0.003425 280.07434 281.66513
311.0 0.003215 280.03271 282.18851
261.0 0.00383 279.99017 282.89310
260.0 0.00385 279.94662 283.79544
298.0 0.003356 279.90219 284.89224
279.0 0.00358 279.85678 286.15460
311.0 0.003215 279.81042 287.52267
288.0 0.003472 279.76315 288.90640
277.0 0.00361 279.71490 290.19092
269.0 0.00372 279.66571 291.24615
293.0 0.003413 279.61557 291.95178
292.0 0.003425 279.56451 292.23093
317.0 0.003155 279.51251 292.08533
294.0 0.003401 279.45953 291.59708
286.0 0.003497 279.40567 290.89621
284.0 0.00352 279.35083 290.11710
285.0 0.00351 279.29507 289.36957
292.0 0.003425 279.23840 288.72266
269.0 0.00372 279.18079 288.20084
315.0 0.003175 279.12225 287.78827
281.0 0.00356 279.06281 287.43979
286.0 0.003497 279.00244 287.10529
285.0 0.00351 278.94119 286.75543
322.0 0.003106 278.87903 286.40060
279.0 0.00358 278.81598 286.08807
261.0 0.00383 278.75204 285.88358
301.0 0.003322 278.68716 285.85202
293.0 0.003413 278.62149 286.04782
289.0 0.003460 278.55490 286.48065
308.0 0.003247 278.48746 287.14288
297.0 0.003367 278.41916 287.98404
285.0 0.00351 278.34998 288.91772
309.0 0.003236 278.28000 289.83398
319.0 0.003135 278.20917 290.61899
338.0 0.002959 278.13754 291.17725
274.0 0.00365 278.06506 291.45975
291.0 0.003436 277.99176 291.41971
301.0 0.003322 277.91769 291.08859
302.0 0.003311 277.84283 290.54074
307.0 0.003257 277.76721 289.84290
314.0 0.003185 277.69080 289.09830
298.0 0.003356 277.61365 288.37518
269.0 0.00372 277.53571 287.70572
320.0 0.003125 277.45703 287.08823
319.0 0.003135 277.37769 286.49698
292.0 0.003425 277.29758 285.89523
311.0 0.003215 277.21680 285.25293
267.0 0.00375 277.13528 284.53143
288.0 0.003472 277.05313 283.73462
307.0 0.003257 276.97028 282.87152
285.0 0.00351 276.88681 281.98206
295.0 0.003390 276.80267 281.10730
286.0 0.003497 276.71790 280.28445
268.0 0.00373 276.63254 279.54053
254.0 0.00394 276.54654 278.89124
301.0 0.003322 276.45999 278.34091
280.0 0.00357 276.37283 277.88312
254.0 0.00394 276.28516 277.50900
267.0 0.00375 276.19690 277.20203
295.0 0.003390 276.10815 276.94724
281.0 0.00356 276.01883 276.73145
258.0 0.00388 275.92902 276.54422
263.0 0.00380 275.83875 276.37775
256.0 0.00391 275.74796 276.22635
257.0 0.00389 275.65674 276.08643
289.0 0.003460 275.56506 275.95541
265.0 0.00377 275.47296 275.83105
282.0 0.00355 275.38046 275.71335
276.0 0.00362 275.28754 275.60049
270.0 0.00370 275.19427 275.49167
267.0 0.00375 275.10062 275.38605
275.0 0.00364 275.00659 275.28287
297.0 0.003367 274.91229 275.18149
262.0 0.00382 274.81763 275.08170
246.0 0.00407 274.72269 274.98303
286.0 0.003497 274.62744 274.88544
295.0 0.003390 274.53192 274.78876
248.0 0.00403 274.43619 274.69302
296.0 0.003378 274.34018 274.59833
253.0 0.00395 274.24399 274.50485
310.0 0.003226 274.14758 274.41266
266.0 0.00376 274.05096 274.32208
266.0 0.00376 273.95422 274.23389
267.0 0.00375 273.85727 274.14722
267.0 0.00375 273.76025 274.06262
267.0 0.00375 273.66306 273.98019
274.0 0.00365 273.56577 273.89981
292.0 0.003425 273.46844 273.82086
258.0 0.00388 273.37097 273.74280
270.0 0.00370 273.27353 273.66492
281.0 0.00356 273.17599 273.58655
265.0 0.00377 273.07843 273.50677
269.0 0.00372 272.98090 273.42554
286.0 0.003497 272.88333 273.34326
301.0 0.003322 272.78586 273.26050
294.0 0.003401 272.68839 273.17883
261.0 0.00383 272.59097 273.09985
280.0 0.00357 272.49365 273.02515
270.0 0.00370 272.39639 272.95685
289.0 0.003460 272.29929 272.89780
253.0 0.00395 272.20227 272.84256
285.0 0.00351 272.10541 272.81485
268.0 0.00373 272.00870 272.81375
273.0 0.00366 271.91214 272.85049
270.0 0.00370 271.81580 272.94022
284.0 0.00352 271.71960 273.10168
296.0 0.003378 271.62369 273.35651
249.0 0.00402 271.52795 273.72632
318.0 0.003145 271.43246 274.23218
272.0 0.00368 271.33722 274.89053
266.0 0.00376 271.24225 275.70773
270.0 0.00370 271.14758 276.69644
282.0 0.00355 271.05316 277.84857
307.0 0.003257 270.95911 279.15665
244.0 0.00410 270.86533 280.60721
276.0 0.00362 270.77191 282.19266
294.0 0.003401 270.67880 283.89499
296.0 0.003378 270.58609 285.72336
282.0 0.00355 270.49371 287.69702
283.0 0.00353 270.40170 289.83109
286.0 0.003497 270.31012 292.11130
277.0 0.00361 270.21890 294.46692
300.0 0.003333 270.12814 296.75867
311.0 0.003215 270.03775 298.80588
323.0 0.003096 269.94785 300.38611
271.0 0.00369 269.85834 301.30600
313.0 0.003195 269.76926 301.44632
344.0 0.002907 269.68066 300.81393
289.0 0.003460 269.59253 299.52191
271.0 0.00369 269.50488 297.77368
273.0 0.00366 269.41772 295.80219
276.0 0.00362 269.33102 293.81680
285.0 0.00351 269.24484 291.96341
260.0 0.00385 269.15912 290.30438
309.0 0.003236 269.07394 288.83151
291.0 0.003436 268.98926 287.46936
246.0 0.00407 268.90509 286.11603
255.0 0.00392 268.82147 284.69214
296.0 0.003378 268.73831 283.14688
266.0 0.00376 268.65576 281.48361
297.0 0.003367 268.57370 279.74524
295.0 0.003390 268.49216 277.99857
287.0 0.003484 268.41122 276.31525
267.0 0.00375 268.33075 274.75638
271.0 0.00369 268.25089 273.36798
299.0 0.003344 268.17151 272.17529
246.0 0.00407 268.09268 271.18478
271.0 0.00369 268.01443 270.38672
272.0 0.00368 267.93671 269.75916
262.0 0.00382 267.85956 269.27444
255.0 0.00392 267.78290 268.90305
271.0 0.00369 267.70679 268.61749
283.0 0.00353 267.63126 268.39432
265.0 0.00377 267.55621 268.21518
289.0 0.003460 267.48175 268.06628
290.0 0.003448 267.40775 267.93835
274.0 0.00365 267.33432 267.82526
254.0 0.00394 267.26141 267.72336
278.0 0.00360 267.18900 267.63095
293.0 0.003413 267.11713 267.54761
291.0 0.003436 267.04572 267.47351
278.0 0.00360 266.97479 267.41708
293.0 0.003413 266.90442 267.36389
266.0 0.00376 266.83450 267.32162
281.0 0.00356 266.76508 267.29031
239.0 0.00418 266.69608 267.26846
282.0 0.00355 266.62756 267.25388
268.0 0.00373 266.55948 267.24268
275.0 0.00364 266.49182 267.23062
283.0 0.00353 266.42468 267.21213
267.0 0.00375 266.35785 267.18161
273.0 0.00366 266.29150 267.13480
256.0 0.00391 266.22546 267.06979
236.0 0.00424 266.15985 266.99197
286.0 0.003497 266.09467 266.89783
248.0 0.00403 266.02975 266.79678
285.0 0.00351 265.96521 266.69434
292.0 0.003425 265.90097 266.59464
260.0 0.00385 265.83707 266.50031
246.0 0.00407 265.77353 266.41223
288.0 0.003472 265.71017 266.32913
234.0 0.00427 265.64716 266.24884
245.0 0.00408 265.58432 266.16864
246.0 0.00407 265.52176 266.08664
290.0 0.003448 265.45947 266.00204
265.0 0.00377 265.39731 265.91608
248.0 0.00403 265.33536 265.83200
258.0 0.00388 265.27356 265.75287
271.0 0.00369 265.21188 265.68457
276.0 0.00362 265.15045 265.63342
261.0 0.00383 265.08902 265.60712
269.0 0.00372 265.02771 265.61487
251.0 0.00398 264.96643 265.66751
255.0 0.00392 264.90524 265.77597
255.0 0.00392 264.84415 265.95111
262.0 0.00382 264.78296 266.20160
247.0 0.00405 264.72180 266.53094
233.0 0.00429 264.66058 266.93683
310.0 0.003226 264.59933 267.40689
277.0 0.00361 264.53806 267.91852
291.0 0.003436 264.47659 268.44110
274.0 0.00365 264.41504 268.93311
293.0 0.003413 264.35333 269.34897
282.0 0.00355 264.29147 269.64310
262.0 0.00382 264.22949 269.78137
301.0 0.003322 264.16721 269.75229
280.0 0.00357 264.10474 269.56656
272.0 0.00368 264.04196 269.27484
285.0 0.00351 263.97891 268.92017
250.0 0.00400 263.91565 268.54837
244.0 0.00410 263.85196 268.19366
255.0 0.00392 263.78799 267.87717
275.0 0.00364 263.72354 267.60358
268.0 0.00373 263.65878 267.36337
272.0 0.00368 263.59360 267.12433
267.0 0.00375 263.52792 266.88577
276.0 0.00362 263.46182 266.60635
262.0 0.00382 263.39514 266.29190
293.0 0.003413 263.32803 265.94269
265.0 0.00377 263.26038 265.56824
277.0 0.00361 263.19211 265.18378
309.0 0.003236 263.12329 264.80618
244.0 0.00410 263.05380 264.44891
261.0 0.00383 262.98373 264.12265
230.0 0.00435 262.91302 263.83401
257.0 0.00389 262.84155 263.57852
247.0 0.00405 262.76947 263.36783
265.0 0.00377 262.69659 263.18692
276.0 0.00362 262.62296 263.04022
284.0 0.00352 262.54865 262.91788
216.0 0.00463 262.47342 262.81454
283.0 0.00353 262.39746 262.72733
267.0 0.00375 262.32062 262.65405
276.0 0.00362 262.24292 262.59515
257.0 0.00389 262.16443 262.55356
257.0 0.00389 262.08490 262.53479
259.0 0.00386 262.00455 262.54800
287.0 0.003484 261.92319 262.60568
265.0 0.00377 261.84088 262.72324
282.0 0.00355 261.75772 262.91858
236.0 0.00424 261.67343 263.21042
280.0 0.00357 261.58817 263.61447
290.0 0.003448 261.50186 264.14185
265.0 0.00377 261.41449 264.79294
280.0 0.00357 261.32617 265.55463
257.0 0.00389 261.23663 266.40094
246.0 0.00407 261.14606 267.28571
266.0 0.00376 261.05432 268.15109
260.0 0.00385 260.96152 268.92511
298.0 0.003356 260.86765 269.53271
261.0 0.00383 260.77249 269.90878
290.0 0.003448 260.67624 270.01318
270.0 0.00370 260.57877 269.84906
289.0 0.003460 260.48013 269.46207
290.0 0.003448 260.38040 268.92557
277.0 0.00361 260.27933 268.31662
276.0 0.00362 260.17712 267.70456
256.0 0.00391 260.07361 267.13657
246.0 0.00407 259.96890 266.63739
255.0 0.00392 259.86307 266.20706
246.0 0.00407 259.75586 265.82291
256.0 0.00391 259.64749 265.44943
253.0 0.00395 259.53778 265.04868
272.0 0.00368 259.42685 264.59280
254.0 0.00394 259.31479 264.07367
279.0 0.00358 259.20132 263.50684
243.0 0.00412 259.08667 262.90320
232.0 0.00431 258.97070 262.29446
285.0 0.00351 258.85349 261.70633
291.0 0.003436 258.73517 261.15921
278.0 0.00360 258.61542 260.66528
288.0 0.003472 258.49451 260.23199
226.0 0.00442 258.37228 259.85733
275.0 0.00364 258.24890 259.53610
253.0 0.00395 258.12433 259.25797
264.0 0.00379 257.99844 259.01123
253.0 0.00395 257.87143 258.78607
286.0 0.003497 257.74307 258.57797
270.0 0.00370 257.61365 258.37671
249.0 0.00402 257.48309 258.18332
268.0 0.00373 257.35123 257.99667
253.0 0.00395 257.21835 257.81699
254.0 0.00394 257.08420 257.64346
250.0 0.00400 256.94897 257.47522
250.0 0.00400 256.81274 257.31100
260.0 0.00385 256.67526 257.14838
266.0 0.00376 256.53690 256.98541
248.0 0.00403 256.39734 256.81992
223.0 0.00448 256.25677 256.65067
259.0 0.00386 256.11533 256.47772
264.0 0.00379 255.97273 256.30161
242.0 0.00413 255.82933 256.12390
274.0 0.00365 255.68488 255.94566
234.0 0.00427 255.53955 255.76385
241.0 0.00415 255.39349 255.58881
262.0 0.00382 255.24632 255.41620
249.0 0.00402 255.09857 255.24675
234.0 0.00427 254.94984 255.08017
260.0 0.00385 254.80043 254.91650
261.0 0.00383 254.65042 254.75534
241.0 0.00415 254.49954 254.59596
279.0 0.00358 254.34808 254.43813
262.0 0.00382 254.19589 254.28119
237.0 0.00422 254.04318 254.12492
283.0 0.00353 253.89006 253.96919
275.0 0.00364 253.73622 253.81117
280.0 0.00357 253.58202 253.65558
229.0 0.00437 253.42726 253.49976
266.0 0.00376 253.27216 253.34392
255.0 0.00392 253.11687 253.18814
252.0 0.00397 252.96104 253.03203
247.0 0.00405 252.80505 252.87599
267.0 0.00375 252.64873 252.71979
267.0 0.00375 252.49226 252.56369
235.0 0.00426 252.33583 252.40779
262.0 0.00382 252.17909 252.25179
282.0 0.00355 252.02242 252.09605
245.0 0.00408 251.86560 251.94044
274.0 0.00365 251.70891 251.78514
241.0 0.00415 251.55247 251.63026
251.0 0.00398 251.39595 251.47562
265.0 0.00377 251.23973 251.32156
237.0 0.00422 251.08366 251.16791
282.0 0.00355 250.92790 251.01494
254.0 0.00394 250.77267 250.86282
237.0 0.00422 250.61760 250.71123
245.0 0.00408 250.46309 250.56067
253.0 0.00395 250.30896 250.41098
232.0 0.00431 250.15541 250.26250
279.0 0.00358 250.00266 250.11540
261.0 0.00383 249.85030 249.96956
241.0 0.00415 249.69876 249.82558
249.0 0.00402 249.54788 249.68362
246.0 0.00407 249.39784 249.54449
249.0 0.00402 249.24883 249.40924
273.0 0.00366 249.10051 249.27899
228.0 0.00439 248.95331 249.15639
263.0 0.00380 248.80693 249.04819
253.0 0.00395 248.66176 248.95230
234.0 0.00427 248.51776 248.87885
252.0 0.00397 248.37479 248.82866
242.0 0.00413 248.23318 248.82837
244.0 0.00410 248.09265 248.88193
257.0 0.00389 247.95360 249.00241
252.0 0.00397 247.81596 249.20113
270.0 0.00370 247.67963 249.48724
258.0 0.00388 247.54489 249.86325
257.0 0.00389 247.41153 250.32492
229.0 0.00437 247.27982 250.85855
269.0 0.00372 247.14980 251.43573
253.0 0.00395 247.02133 252.02541
236.0 0.00424 246.89470 252.57434
254.0 0.00394 246.76968 253.04324
248.0 0.00403 246.64655 253.37807
250.0 0.00400 246.52538 253.53972
225.0 0.00444 246.40590 253.51135
242.0 0.00413 246.28853 253.30473
256.0 0.00391 246.17300 252.95702
247.0 0.00405 246.05954 252.51997
256.0 0.00391 245.94826 252.04617
232.0 0.00431 245.83890 251.57829
242.0 0.00413 245.73181 251.14799
244.0 0.00410 245.62677 250.76720
263.0 0.00380 245.52400 250.43486
249.0 0.00402 245.42357 250.13525
272.0 0.00368 245.32527 249.84215
253.0 0.00395 245.22934 249.53020
226.0 0.00442 245.13568 249.17819
240.0 0.00417 245.04442 248.77884
243.0 0.00412 244.95564 248.33765
251.0 0.00398 244.86914 247.86786
215.0 0.00465 244.78516 247.38860
242.0 0.00413 244.70357 246.91736
258.0 0.00388 244.62448 246.47047
237.0 0.00422 244.54799 246.06047
242.0 0.00413 244.47391 245.69414
262.0 0.00382 244.40240 245.37546
267.0 0.00375 244.33340 245.10382
230.0 0.00435 244.26698 244.87589
242.0 0.00413 244.20322 244.68661
256.0 0.00391 244.14192 244.52950
248.0 0.00403 244.08327 244.39886
259.0 0.00386 244.02718 244.28917
242.0 0.00413 243.97368 244.19807
236.0 0.00424 243.92284 244.11746
248.0 0.00403 243.87451 244.04666
250.0 0.00400 243.82883 243.98381
257.0 0.00389 243.78571 243.92738
247.0 0.00405 243.74519 243.87639
253.0 0.00395 243.70728 243.83018
257.0 0.00389 243.67189 243.78824
230.0 0.00435 243.63907 243.75018
280.0 0.00357 243.60878 243.71585
254.0 0.00394 243.58104 243.68506
221.0 0.00452 243.55583 243.65787
247.0 0.00405 243.53308 243.63519
264.0 0.00379 243.51282 243.61493
232.0 0.00431 243.49500 243.59824
225.0 0.00444 243.47960 243.58516
216.0 0.00463 243.46661 243.57568
263.0 0.00380 243.45601 243.56979
267.0 0.00375 243.44774 243.56740
244.0 0.00410 243.44179 243.56819
222.0 0.00450 243.43813 243.57191
235.0 0.00426 243.43669 243.57817
247.0 0.00405 243.43750 243.58948
238.0 0.00420 243.44048 243.59927
280.0 0.00357 243.44560 243.61009
246.0 0.00407 243.45282 243.62146
252.0 0.00397 243.46208 243.63322
270.0 0.00370 243.47339 243.64561
259.0 0.00386 243.48666 243.65875
212.0 0.00472 243.50188 243.67343
253.0 0.00395 243.51897 243.68983
250.0 0.00400 243.53790 243.70869
253.0 0.00395 243.55865 243.73019
274.0 0.00365 243.58112 243.75461
217.0 0.00461 243.60532 243.78343
231.0 0.00433 243.63113 243.81380
230.0 0.00435 243.65855 243.84720
224.0 0.00446 243.68756 243.88397
227.0 0.00441 243.71802 243.92450
235.0 0.00426 243.74997 243.97015
258.0 0.00388 243.78333 244.02271
248.0 0.00403 243.81796 244.08505
283.0 0.00353 243.85396 244.16139
242.0 0.00413 243.89117 244.25681
250.0 0.00400 243.92961 244.37827
213.0 0.00469 243.96919 244.53333
226.0 0.00442 244.00981 244.73035
260.0 0.00385 244.05153 244.97832
253.0 0.00395 244.09421 245.28397
262.0 0.00382 244.13789 245.65263
270.0 0.00370 244.18245 246.08463
255.0 0.00392 244.22780 246.57492
222.0 0.00450 244.27403 247.11394
231.0 0.00433 244.32098 247.68321
268.0 0.00373 244.36870 248.26018
254.0 0.00394 244.41705 248.81599
258.0 0.00388 244.46600 249.31961
270.0 0.00370 244.51563 249.74265
262.0 0.00382 244.56575 250.06203
238.0 0.00420 244.61642 250.27063
262.0 0.00382 244.66757 250.37820
240.0 0.00417 244.71910 250.40334
233.0 0.00429 244.77113 250.39066
237.0 0.00422 244.82350 250.36403
285.0 0.00351 244.87627 250.34607
244.0 0.00410 244.92934 250.34846
265.0 0.00377 244.98265 250.37076
274.0 0.00365 245.03633 250.40123
221.0 0.00452 245.09021 250.41940
237.0 0.00422 245.14438 250.40100
259.0 0.00386 245.19873 250.32497
290.0 0.003448 245.25323 250.17975
276.0 0.00362 245.30800 249.96638
241.0 0.00415 245.36288 249.69505
258.0 0.00388 245.41797 249.39163
245.0 0.00408 245.47319 249.07527
242.0 0.00413 245.52849 248.76598
264.0 0.00379 245.58398 248.47844
247.0 0.00405 245.63953 248.22304
220.0 0.00455 245.69528 248.00304
239.0 0.00418 245.75105 247.81706
236.0 0.00424 245.80693 247.66006
267.0 0.00375 245.86293 247.52528
254.0 0.00394 245.91895 247.40761
234.0 0.00427 245.97513 247.30421
261.0 0.00383 246.03130 247.21457
247.0 0.00405 246.08749 247.14038
221.0 0.00452 246.14378 247.08423
246.0 0.00407 246.20003 247.05031
244.0 0.00410 246.25632 247.04321
218.0 0.00459 246.31258 247.06793
235.0 0.00426 246.36871 247.12938
212.0 0.00472 246.42482 247.23218
235.0 0.00426 246.48074 247.37950
239.0 0.00418 246.53654 247.57338
251.0 0.00398 246.59210 247.81297
274.0 0.00365 246.64729 248.09445
255.0 0.00392 246.70221 248.41139
254.0 0.00394 246.75661 248.75218
255.0 0.00392 246.81052 249.10300
277.0 0.00361 246.86375 249.44574
233.0 0.00429 246.91615 249.76044
256.0 0.00391 246.96776 250.02777
257.0 0.00389 247.01822 250.22955
271.0 0.00369 247.06747 250.35573
263.0 0.00380 247.11533 250.40526
271.0 0.00369 247.16147 250.38907
282.0 0.00355 247.20581 250.32605
252.0 0.00397 247.24800 250.23891
256.0 0.00391 247.28778 250.14983
256.0 0.00391 247.32480 250.07832
227.0 0.00441 247.35870 250.03931
257.0 0.00389 247.38919 250.04257
241.0 0.00415 247.41577 250.09254
252.0 0.00397 247.43800 250.18896
249.0 0.00402 247.45538 250.32573
257.0 0.00389 247.46736 250.49524
224.0 0.00446 247.47339 250.68927
233.0 0.00429 247.47278 250.89871
263.0 0.00380 247.46483 251.11574
257.0 0.00389 247.44882 251.33032
257.0 0.00389 247.42397 251.52991
240.0 0.00417 247.38928 251.69878
239.0 0.00418 247.34393 251.81770
266.0 0.00376 247.28680 251.86641
249.0 0.00402 247.21686 251.82793
253.0 0.00395 247.13301 251.69356
249.0 0.00402 247.03375 251.46573
281.0 0.00356 246.91794 251.15828
248.0 0.00403 246.78397 250.79187
264.0 0.00379 246.63037 250.38951
239.0 0.00418 246.45566 249.97122
268.0 0.00373 246.25761 249.55011
226.0 0.00442 246.03473 249.13449
261.0 0.00383 245.78468 248.72366
274.0 0.00365 245.50552 248.31119
221.0 0.00452 245.19522 247.88478
251.0 0.00398 244.85059 247.42712
220.0 0.00455 244.46967 246.92293
273.0 0.00366 244.04918 246.35866
282.0 0.00355 243.58678 245.72803
222.0 0.00450 243.07924 245.02989
227.0 0.00441 242.52249 244.26613
223.0 0.00448 241.91425 243.44324
264.0 0.00379 241.24919 242.56441
258.0 0.00388 240.52505 241.63565
245.0 0.00408 239.73726 240.65897
226.0 0.00442 238.88026 239.63324
233.0 0.00429 237.95117 238.55855
235.0 0.00426 236.94315 237.42856
251.0 0.00398 235.85233 236.23862
229.0 . . .
loop_
_refln_index_h
_refln_index_k
_refln_index_l
_pd_refln_wavelength_id
_refln_observed_status
_refln_F_squared_meas
_refln_F_squared_calc
_refln_phase_calc
_refln_d_spacing
_gsas_i100_meas
0 0 1 1 o 405.624 416.352 0.00 7.40545 32.43
0 0 1 2 o 397.762 416.352 0.00 7.40545 15.85
1 0 1 1 o 163.112 159.917 180.00 4.78266 30.36
1 0 1 2 o 167.280 159.917 180.00 4.78266 15.49
1 1 0 1 o 93.826 85.989 180.00 4.42951 6.94
1 1 0 2 o 94.548 85.989 180.00 4.42951 3.48
1 1 1 1 o 928.554 921.803 0.00 3.80139 100.00
1 1 1 2 o 931.805 921.803 0.00 3.80139 49.91
0 0 2 1 o 690.553 598.476 0.00 3.70272 12.83
0 0 2 2 o 582.709 598.476 0.00 3.70272 5.43
1 0 2 1 o 68.239 60.919 180.00 3.18753 4.34
1 0 2 2 o 70.954 60.919 180.00 3.18753 2.24
2 0 0 1 o 2361.253 2263.100 180.00 3.13214 59.47
2 0 0 2 o 2279.968 2263.100 180.00 3.13214 28.59
2 0 1 1 o 267.982 255.619 180.00 2.88473 19.24
2 0 1 2 o 258.264 255.619 180.00 2.88473 9.24
1 1 2 1 o 366.299 354.077 0.00 2.84089 17.64
1 1 2 2 o 366.562 354.077 0.00 2.84089 8.78
2 1 1 1 o 24.875 35.812 0.00 2.62025 2.45
2 1 1 2 o 22.465 35.812 0.00 2.62025 1.10
0 0 3 1 o 729.276 381.388 0.00 2.46848 5.48
0 0 3 2 o 681.847 381.388 0.00 2.46848 2.55
2 0 2 1 o 223.679 258.593 180.00 2.39133 9.93
2 0 2 2 o 191.090 258.593 180.00 2.39133 4.27
1 0 3 1 o 23.906 11.629 180.00 2.29660 0.70
1 0 3 2 o 30.383 11.629 180.00 2.29660 0.44
2 1 2 1 o 60.795 54.420 0.00 2.23408 3.86
2 1 2 2 o 59.444 54.420 0.00 2.23408 1.88
2 2 0 1 o 798.745 859.828 0.00 2.21476 14.73
2 2 0 2 o 753.891 859.828 0.00 2.21476 6.93
1 1 3 1 o 106.775 125.804 0.00 2.15626 2.92
1 1 3 2 o 101.194 125.804 0.00 2.15626 1.38
2 2 1 1 o 234.375 161.833 0.00 2.12189 7.91
2 2 1 2 o 207.849 161.833 0.00 2.12189 3.51
3 0 1 1 o -0.163 9.738 0.00 2.00973 0.00
3 0 1 2 o -0.163 9.738 0.00 2.00973 0.00
3 1 0 1 o 22.819 0.231 0.00 1.98094 0.42
3 1 0 2 o 19.785 0.231 0.00 1.98094 0.18
2 0 3 1 o 216.769 176.245 180.00 1.93875 4.89
2 0 3 2 o 205.227 176.245 180.00 1.93875 2.31
3 1 1 1 o 122.797 128.277 180.00 1.91366 5.62
3 1 1 2 o 122.143 128.277 180.00 1.91366 2.78
2 2 2 1 o 146.595 124.887 0.00 1.90069 3.40
2 2 2 2 o 134.687 124.887 0.00 1.90069 1.56
2 1 3 1 o 5.173 3.483 0.00 1.85208 0.19
0 0 4 1 o 18.072 12.712 0.00 1.85136 0.08
2 1 3 2 o 0.928 3.483 0.00 1.85208 0.02
0 0 4 2 o 1.578 12.712 0.00 1.85136 0.01
3 0 2 1 o 20.969 39.567 0.00 1.81881 0.52
3 0 2 2 o 13.042 39.567 0.00 1.81881 0.16
1 0 4 1 o 18.814 2.601 180.00 1.77545 0.29
1 0 4 2 o 14.678 2.601 180.00 1.77545 0.11
3 1 2 1 o 96.634 83.451 180.00 1.74668 4.09
3 1 2 2 o 90.979 83.451 180.00 1.74668 1.92
1 1 4 1 o 233.059 225.225 0.00 1.70816 3.48
1 1 4 2 o 219.654 225.225 0.00 1.70816 1.64
3 2 1 1 o 4.358 1.223 180.00 1.69147 0.15
3 2 1 2 o 5.936 1.223 180.00 1.69147 0.10
2 2 3 1 o 86.399 88.505 0.00 1.64850 1.23
2 2 3 2 o 78.281 88.505 0.00 1.64850 0.56
3 0 3 1 o 0.469 1.349 0.00 1.59422 0.01
2 0 4 1 o 3.686 4.895 180.00 1.59376 0.06
3 0 3 2 o 2.189 1.349 0.00 1.59422 0.02
2 0 4 2 o 6.187 4.895 180.00 1.59376 0.05
3 2 2 1 o 10.747 34.092 180.00 1.57286 0.33
3 2 2 2 o 20.766 34.092 180.00 1.57286 0.31
4 0 0 1 o 205.004 208.769 0.00 1.56607 1.05
4 0 0 2 o 172.472 208.769 0.00 1.56607 0.44
3 1 3 1 o 69.622 37.512 180.00 1.54497 1.98
2 1 4 1 o 4.211 2.403 0.00 1.54456 0.10
3 1 3 2 o 58.991 37.512 180.00 1.54497 0.84
2 1 4 2 o 3.750 2.403 0.00 1.54456 0.04
4 0 1 1 o 122.414 52.861 0.00 1.53218 1.49
4 0 1 2 o 77.011 52.861 0.00 1.53218 0.48
4 1 1 1 o -0.015 0.459 180.00 1.48831 0.00
4 1 1 2 o -0.015 0.459 180.00 1.48831 0.00
0 0 5 1 o -2.136 16.052 0.00 1.48109 0.00
0 0 5 2 o 94.050 16.052 0.00 1.48109 0.10
3 3 0 1 o 21.955 2.528 0.00 1.47650 0.15
3 3 0 2 o 1.861 2.528 0.00 1.47650 0.01
3 3 1 1 o 19.966 21.847 0.00 1.44800 0.29
3 3 1 2 o 25.003 21.847 0.00 1.44800 0.17
4 0 2 1 o 33.565 38.062 0.00 1.44236 0.48
1 0 5 1 o 7.180 8.754 180.00 1.44135 0.06
4 0 2 2 o 20.963 38.062 0.00 1.44236 0.16
1 0 5 2 o 3.393 8.754 180.00 1.44135 0.02
3 2 3 1 o -0.012 0.258 180.00 1.42077 0.00
2 2 4 1 o -0.722 1.698 0.00 1.42045 0.00
3 2 3 2 o 0.061 0.258 180.00 1.42077 0.00
2 2 4 2 o 1.179 1.698 0.00 1.42045 0.01
4 1 2 1 o 14.601 21.476 180.00 1.40559 0.35
1 1 5 1 o 36.692 56.219 0.00 1.40465 0.35
4 1 2 2 o 24.896 21.476 180.00 1.40559 0.29
1 1 5 2 o 76.065 56.219 0.00 1.40465 0.34
4 2 0 1 o 132.775 95.253 180.00 1.40074 1.24
4 2 0 2 o 106.917 95.253 180.00 1.40074 0.50
3 0 4 1 o 4.045 1.725 0.00 1.38528 0.04
3 0 4 2 o 6.959 1.725 0.00 1.38528 0.03
4 2 1 1 o 91.345 38.606 180.00 1.37633 1.77
4 2 1 2 o 80.529 38.606 180.00 1.37633 0.78
3 3 2 1 o 49.159 25.301 0.00 1.37148 0.56
3 3 2 2 o 28.929 25.301 0.00 1.37148 0.17
3 1 4 1 o 47.261 78.414 180.00 1.35260 0.92
3 1 4 2 o 27.498 78.414 180.00 1.35260 0.28
2 0 5 1 o -1.040 9.348 180.00 1.33894 0.00
2 0 5 2 o -1.292 9.348 180.00 1.33894 0.00
4 0 3 1 o 38.339 26.254 0.00 1.32239 0.44
4 0 3 2 o 34.933 26.254 0.00 1.32239 0.20
4 2 2 1 o 43.961 21.298 180.00 1.31012 0.86
2 1 5 1 o 6.076 3.095 0.00 1.30936 0.09
4 2 2 2 o 38.694 21.298 180.00 1.31012 0.38
2 1 5 2 o 6.856 3.095 0.00 1.30936 0.05
4 1 3 1 o -0.010 0.210 180.00 1.29388 0.00
4 1 3 2 o -0.010 0.210 180.00 1.29388 0.00
3 3 3 2 o 30.484 13.029 0.00 1.26713 0.13
3 2 4 2 o 3.449 1.584 180.00 1.26690 0.03
3 3 3 1 o 32.600 13.029 0.00 1.26713 0.28
3 2 4 1 o 3.726 1.584 180.00 1.26690 0.05
4 3 1 1 o -0.002 0.406 180.00 1.23530 0.00
5 0 1 1 o -0.003 0.047 180.00 1.23530 0.00
0 0 6 1 o -0.474 1.754 0.00 1.23424 0.00
4 3 1 2 o -0.002 0.406 180.00 1.23530 0.00
5 0 1 2 o -0.003 0.047 180.00 1.23530 0.00
0 0 6 2 o -0.474 1.754 0.00 1.23424 0.00
2 2 5 1 o -0.790 5.576 0.00 1.23116 0.00
5 1 0 1 o 0.192 0.060 0.00 1.22853 0.00
2 2 5 2 o 9.357 5.576 0.00 1.23116 0.03
5 1 0 2 o 2.302 0.060 0.00 1.22853 0.01
4 2 3 1 o 16.681 14.595 180.00 1.21826 0.29
4 2 3 2 o 20.942 14.595 180.00 1.21826 0.18
5 1 1 1 o 17.428 8.594 0.00 1.21196 0.23
1 0 6 1 o 53.475 27.117 0.00 1.21096 0.32
5 1 1 2 o 17.799 8.594 0.00 1.21196 0.12
3 0 5 1 o 2.105 1.269 0.00 1.20805 0.01
1 0 6 2 o 43.985 27.117 0.00 1.21096 0.13
3 0 5 2 o -0.020 1.269 0.00 1.20805 0.00
4 0 4 1 o 1.174 0.094 0.00 1.19566 0.01
4 0 4 2 o 0.898 0.094 0.00 1.19566 0.00
1 1 6 1 o 33.401 25.851 0.00 1.18895 0.21
5 0 2 1 o 9.987 9.577 180.00 1.18676 0.08
4 3 2 1 o 16.234 15.569 0.00 1.18676 0.26
3 1 5 1 o 17.836 17.989 180.00 1.18620 0.25
1 1 6 2 o 25.136 25.851 0.00 1.18895 0.08
5 0 2 2 o 9.333 9.577 180.00 1.18676 0.04
4 3 2 2 o 15.172 15.569 0.00 1.18676 0.12
3 1 5 2 o 20.070 17.989 180.00 1.18620 0.14
4 1 4 1 o 2.842 0.873 180.00 1.17446 0.04
4 1 4 2 o -0.022 0.873 180.00 1.17446 0.00
5 1 2 1 o 12.727 7.341 0.00 1.16602 0.20
5 1 2 2 o 11.631 7.341 0.00 1.16602 0.09
3 3 4 1 o 58.563 31.444 0.00 1.15435 0.37
3 3 4 2 o 38.680 31.444 0.00 1.15435 0.13
5 2 1 1 o 0.459 0.120 180.00 1.14916 0.01
2 0 6 1 o 6.436 1.525 180.00 1.14830 0.04
5 2 1 2 o 0.001 0.120 180.00 1.14916 0.00
2 0 6 2 o -0.343 1.525 180.00 1.14830 0.00
2 1 6 1 o 19.162 13.988 180.00 1.12948 0.22
3 2 5 1 o 0.329 0.264 180.00 1.12712 0.00
2 1 6 2 o 19.392 13.988 180.00 1.12948 0.11
3 2 5 2 o 2.263 0.264 180.00 1.12712 0.01
4 3 3 1 o 0.031 0.002 180.00 1.11720 0.00
5 0 3 1 o 2.910 0.131 180.00 1.11720 0.02
4 2 4 1 o 1.011 0.000 0.00 1.11704 0.01
4 3 3 2 o 0.000 0.002 180.00 1.11720 0.00
5 0 3 2 o -0.007 0.131 180.00 1.11720 0.00
4 2 4 2 o -0.049 0.000 0.00 1.11704 0.00
5 2 2 1 o 17.237 9.119 0.00 1.10977 0.23
4 4 0 1 o 20.305 11.916 0.00 1.10738 0.08
5 2 2 2 o 14.291 9.119 0.00 1.10977 0.10
4 4 0 2 o -0.973 11.916 0.00 1.10738 0.00
5 1 3 1 o 13.152 4.523 0.00 1.09984 0.21
5 1 3 2 o 2.831 4.523 0.00 1.09984 0.03
4 4 1 1 o 16.549 12.648 0.00 1.09520 0.13
4 4 1 2 o 18.573 12.648 0.00 1.09520 0.07
