#------------------------------------------------------------------------------
#$Date$
#$Revision$
#$URL$
#------------------------------------------------------------------------------
#
# This file is available in the Crystallography Open Database (COD),
# http://www.crystallography.net/
#
# All data on this site have been placed in the public domain by the
# contributors.
#
data_1518592
loop_
_publ_author_name
'Seki, Tomohiro'
'Ozaki, Taichi'
'Okura, Takuma'
'Asakura, Kiyotaka'
'Sakon, Aya'
'Uekusa, Hidehiro'
'Ito, Hajime'
_publ_section_title
;
 Interconvertible multiple photoluminescence color of a gold(i) isocyanide
 complex in the solid state: solvent-induced blue-shifted and
 mechano-responsive red-shifted photoluminescence
;
_journal_issue                   4
_journal_name_full               'Chem. Sci.'
_journal_page_first              2187
_journal_paper_doi               10.1039/C4SC03960B
_journal_volume                  6
_journal_year                    2015
_chemical_formula_moiety         'C18 H4 Au2 F8 N4'
_chemical_formula_sum            'C18 H4 Au2 F8 N4'
_chemical_formula_weight         822.18
_chemical_name_common            Au_Y
_space_group_IT_number           14
_symmetry_cell_setting           monoclinic
_symmetry_Int_Tables_number      14
_symmetry_space_group_name_Hall  '-P 2ybc'
_symmetry_space_group_name_H-M   'P 1 21/c 1'
_audit_creation_date             2014-07-04T11:12
_audit_creation_method           'from EXP file using GSAS2CIF'
_audit_update_record
;
2014-11-25 deposited with the CCDC.
2015-01-21 downloaded from the CCDC.
;
_cell_angle_alpha                90.0
_cell_angle_beta                 103.1674(33)
_cell_angle_gamma                90.0
_cell_formula_units_Z            2
_cell_length_a                   7.79058(18)
_cell_length_b                   18.7202(5)
_cell_length_c                   6.74157(17)
_cell_measurement_temperature    293
_cell_volume                     957.35(4)
_computing_structure_refinement  GSAS
_diffrn_ambient_pressure         101.3
_diffrn_ambient_temperature      293
_diffrn_measurement_device_type  'RIGAKU SmartLab'
_diffrn_radiation_polarisn_ratio 0.5
_diffrn_radiation_probe          x-ray
_exptl_absorpt_correction_T_max  1.00000
_exptl_absorpt_correction_T_min  1.00000
_exptl_absorpt_process_details
;   GSAS Absorption/surface roughness correction: function number 0
 No correction is applied.
;
_exptl_crystal_colour            yellow
_exptl_crystal_density_diffrn    2.852
_exptl_crystal_preparation       Luminescent
_pd_block_id                     2014-07-04T11:12|IRAI_ITO_AU_Y||
_pd_calc_method                  'Rietveld Refinement'
_pd_instr_location               ' ?'
_pd_meas_2theta_range_inc        0.01
_pd_meas_2theta_range_max        60.0
_pd_meas_2theta_range_min        7.01
_pd_meas_number_of_points        5300
_pd_phase_name
'from C:/data/powder/ITO_Au/140205irai_ITO_Au_Y_long/Rietveld_P21c_'
_pd_proc_2theta_range_inc        0.01
_pd_proc_2theta_range_max        60.01466
_pd_proc_2theta_range_min        7.02466
_pd_proc_info_datetime           2014-07-04T11:12:46
_pd_proc_info_excluded_regions   ' ?'
_pd_proc_ls_background_function
;   GSAS Background function number 1 with 36 terms.
 Shifted Chebyshev function of 1st kind
      1:    4538.77     2:   -4449.16     3:    1513.42     4:   -294.873    
      5:   -97.7713     6:    225.064     7:   -238.974     8:    116.391    
      9:   -52.6608    10:   -22.0486    11:    1.14103    12:    16.9197    
     13:   -47.0084    14:   -33.6764    15:    73.5583    16:   -83.4541    
     17:   -1.19068    18:    3.08865    19:    14.7419    20:   -38.1903    
     21:    23.5189    22:   -32.4102    23:   -21.0203    24:    26.8614    
     25:   -22.4870    26:    19.8953    27:   -15.8095    28:   -16.8814    
     29:  -0.885956    30:    27.1830    31:   -35.1076    32:   -40.9567    
     33:    43.8835    34:   -91.3355    35:    81.7615    36:   -92.0514    
;
_pd_proc_ls_peak_cutoff          0.00400
_pd_proc_ls_profile_function
;
 CW Profile function number 2 with  18 terms
 Profile coefficients for Simpson's rule integration of pseudovoigt function
 C.J. Howard (1982). J. Appl. Cryst.,15,615-620.
 P. Thompson, D.E. Cox & J.B. Hastings (1987). J. Appl. Cryst.,20,79-83.
 Peak tails are ignored  where the intensity is below 0.0040 times the peak
   Aniso. broadening axis   0.0   0.0   1.0
;
_pd_proc_ls_prof_R_factor        0.0360
_pd_proc_ls_prof_wR_expected     0.0118
_pd_proc_ls_prof_wR_factor       0.0462
_pd_proc_number_of_points        5300
_pd_spec_mounting                ' ?'
_refine_ls_goodness_of_fit_all   3.96
_refine_ls_hydrogen_treatment    refxyz
_refine_ls_matrix_type           full
_refine_ls_number_parameters     105
_refine_ls_number_restraints     54
_refine_ls_R_Fsqd_factor         0.02738
_refine_ls_shift/su_max          0.04
_refine_ls_shift/su_mean         0.00
_reflns_d_resolution_high        1.542
_reflns_d_resolution_low         9.360
_reflns_limit_h_max              5
_reflns_limit_h_min              0
_reflns_limit_k_max              12
_reflns_limit_k_min              0
_reflns_limit_l_max              4
_reflns_limit_l_min              -4
_reflns_number_total             538
_cod_data_source_file            c4sc03960b2.cif
_cod_data_source_block           IRAI_ITO_AU_Y_publ
_cod_depositor_comments
;
The following automatic conversions were performed:

'_geom_bond_publ_flag' value 'N' changed to 'n' according to
/usr/data/users/saulius/crontab/automatic-downloads/rss-feeds/RSC/lib/dictionaries/cif_core.dic
dictionary named 'cif_core.dic' version 2.4.2 from 2011-04-26 (38
times).

'_geom_angle_publ_flag' value 'N' changed to 'n' according to
/usr/data/users/saulius/crontab/automatic-downloads/rss-feeds/RSC/lib/dictionaries/cif_core.dic
dictionary named 'cif_core.dic' version 2.4.2 from 2011-04-26 (28
times).

Automatic conversion script
Id: cif_fix_values 3008 2015-01-20 13:52:24Z robertas 

 Adding full bibliography for 1518590--1518592.cif.
;
_cod_original_cell_volume        957.35(5)
_cod_original_sg_symbol_H-M      'P 21/c'
_cod_database_code               1518592
#BEGIN Tags that were not found in dictionaries:
_gsas_exptl_extinct_corr_t_min   1.00000
_gsas_exptl_extinct_corr_t_max   1.00000
#END Tags that were not found in dictionaries
loop_
_symmetry_equiv_pos_site_id
_symmetry_equiv_pos_as_xyz
1 +x,+y,+z
2 -x,+y+1/2,-z+1/2
-1 -x,-y,-z
-2 +x,-y+1/2,+z+1/2
loop_
_atom_site_type_symbol
_atom_site_label
_atom_site_fract_x
_atom_site_fract_y
_atom_site_fract_z
_atom_site_occupancy
_atom_site_thermal_displace_type
_atom_site_U_iso_or_equiv
_atom_site_symmetry_multiplicity
C C1 1.1265(6) -0.38232(20) -0.09213(27) 1.0 Uiso 0.0715(9) 4
F F2 0.9639(7) -0.4052(4) -0.09756(34) 1.0 Uiso 0.0715(9) 4
C C3 1.2506(7) -0.43253(21) -0.11397(29) 1.0 Uiso 0.0715(9) 4
F F4 1.2028(10) -0.50132(24) -0.1394(4) 1.0 Uiso 0.0715(9) 4
N N5 1.4146(7) -0.41772(26) -0.11164(31) 1.0 Uiso 0.0715(9) 4
C C6 1.4602(6) -0.35074(27) -0.08706(28) 1.0 Uiso 0.0715(9) 4
F F7 1.6285(6) -0.3338(4) -0.0843(4) 1.0 Uiso 0.0715(9) 4
C C8 1.3459(5) -0.29559(24) -0.06352(27) 1.0 Uiso 0.0715(9) 4
F F9 1.4116(8) -0.22969(30) -0.03981(34) 1.0 Uiso 0.0715(9) 4
C C10 1.1712(5) -0.31095(19) -0.06581(28) 1.0 Uiso 0.0715(9) 4
Au Au11 0.99059(25) -0.23336(8) -0.05333(17) 1.0 Uiso 0.0715(9) 4
C C12 0.8136(9) -0.15794(27) -0.0518(11) 1.0 Uiso 0.0715(9) 4
N N13 0.7142(9) -0.11351(26) -0.0430(11) 1.0 Uiso 0.0715(9) 4
C C14 0.6028(7) -0.05642(21) -0.0223(8) 1.0 Uiso 0.0715(9) 4
C C15 0.4258(8) -0.05799(22) -0.1210(4) 1.0 Uiso 0.0715(9) 4
C C16 0.3203(4) -0.00110(34) -0.0975(6) 1.0 Uiso 0.0715(9) 4
H H17 0.3769(14) -0.09891(35) -0.2059(7) 1.0 Uiso 0.0859(11) 4
H H18 0.1948(4) -0.0004(6) -0.1650(10) 1.0 Uiso 0.0859(11) 4
loop_
_atom_type_symbol
_atom_type_number_in_cell
_atom_type_scat_dispersion_real
_atom_type_scat_dispersion_imag
_atom_type_scat_Cromer_Mann_a1
_atom_type_scat_Cromer_Mann_a2
_atom_type_scat_Cromer_Mann_a3
_atom_type_scat_Cromer_Mann_a4
_atom_type_scat_Cromer_Mann_b1
_atom_type_scat_Cromer_Mann_b2
_atom_type_scat_Cromer_Mann_b3
_atom_type_scat_Cromer_Mann_b4
_atom_type_scat_Cromer_Mann_c
_atom_type_scat_source
C 36.0 0.000 0.000 2.31000 20.8439 1.02000 10.2075 1.58860 0.56870 0.86500
51.6512 0.21560 International_Tables_Vol_C
F 16.0 0.000 0.000 3.53920 10.2825 2.64120 4.29440 1.51700 0.26150 1.02430
26.1476 0.27760 International_Tables_Vol_C
N 8.0 0.000 0.000 12.2126 0.00570 3.13220 9.89330 2.01250 28.9975 1.16630
0.58260 -11.529 International_Tables_Vol_C
Au 4.0 0.000 0.000 16.8819 0.46110 18.5913 8.62160 25.5582 1.48260 5.86000
36.3956 12.0658 International_Tables_Vol_C
H 8.0 0.000 0.000 0.49300 10.5109 0.32291 26.1257 0.14019 3.14236 0.04081
57.7997 0.00304 International_Tables_Vol_C
loop_
_diffrn_radiation_type
_diffrn_radiation_wavelength
_diffrn_radiation_wavelength_wt
_diffrn_radiation_wavelength_id
CuK\a~1~ 1.540593 1.000 1
loop_
_geom_angle_atom_site_label_1
_geom_angle_atom_site_label_2
_geom_angle_atom_site_label_3
_geom_angle
_geom_angle_site_symmetry_1
_geom_angle_site_symmetry_3
_geom_angle_publ_flag
F2 C1 C3 117.64(26) 1_555 1_555 n
F2 C1 C10 121.71(26) 1_555 1_555 n
C3 C1 C10 120.66(21) 1_555 1_555 n
C1 C3 F4 119.15(26) 1_555 1_555 n
C1 C3 N5 124.22(22) 1_555 1_555 n
F4 C3 N5 116.63(26) 1_555 1_555 n
C3 N5 C6 116.32(23) 1_555 1_555 n
N5 C6 F7 117.66(27) 1_555 1_555 n
N5 C6 C8 124.32(22) 1_555 1_555 n
F7 C6 C8 118.03(27) 1_555 1_555 n
C6 C8 F9 117.46(25) 1_555 1_555 n
C6 C8 C10 119.67(21) 1_555 1_555 n
F9 C8 C10 122.86(25) 1_555 1_555 n
C1 C10 C8 114.81(20) 1_555 1_555 n
C1 C10 Au11 122.57(22) 1_555 1_555 n
C8 C10 Au11 122.46(23) 1_555 1_555 n
C10 Au11 C12 177.99(21) 1_555 1_555 n
Au11 C12 N13 177.3(4) 1_555 1_555 n
C12 N13 C14 175.7(4) 1_555 1_555 n
N13 C14 C15 120.4(4) 1_555 1_555 n
N13 C14 C16 116.8(4) 1_555 -1_655 n
C15 C14 C16 122.81(28) 1_555 -1_655 n
C14 C15 C16 118.88(16) 1_555 1_555 n
C14 C15 H17 120.53(12) 1_555 1_555 n
C16 C15 H17 120.58(12) 1_555 1_555 n
C14 C16 C15 118.30(32) -1_655 1_555 n
C14 C16 H18 120.67(35) -1_655 1_555 n
C15 C16 H18 121.03(13) 1_555 1_555 n
loop_
_geom_bond_atom_site_label_1
_geom_bond_atom_site_label_2
_geom_bond_distance
_geom_bond_site_symmetry_2
_geom_bond_publ_flag
C1 F2 1.3293(12) 1_555 n
C1 C3 1.3803(12) 1_555 n
C1 C10 1.3819(12) 1_555 n
F2 C1 1.3293(12) 1_555 n
C3 C1 1.3803(12) 1_555 n
C3 F4 1.3405(12) 1_555 n
C3 N5 1.3044(12) 1_555 n
F4 C3 1.3405(12) 1_555 n
N5 C3 1.3044(12) 1_555 n
N5 C6 1.3034(12) 1_555 n
C6 N5 1.3034(12) 1_555 n
C6 F7 1.3453(12) 1_555 n
C6 C8 1.3959(12) 1_555 n
F7 C6 1.3453(12) 1_555 n
C8 C6 1.3959(12) 1_555 n
C8 F9 1.3314(12) 1_555 n
C8 C10 1.3875(12) 1_555 n
F9 C8 1.3314(12) 1_555 n
C10 C1 1.3819(12) 1_555 n
C10 C8 1.3875(12) 1_555 n
C10 Au11 2.0370(12) 1_555 n
Au11 C10 2.0370(12) 1_555 n
Au11 C12 1.9750(12) 1_555 n
C12 Au11 1.9750(12) 1_555 n
C12 N13 1.1475(12) 1_555 n
N13 C12 1.1475(12) 1_555 n
N13 C14 1.4032(12) 1_555 n
C14 N13 1.4032(12) 1_555 n
C14 C15 1.3881(12) 1_555 n
C14 C16 1.3969(12) -1_655 n
C15 C14 1.3881(12) 1_555 n
C15 C16 1.3763(12) 1_555 n
C15 H17 0.9800(6) 1_555 n
C16 C14 1.3969(12) -1_655 n
C16 C15 1.3763(12) 1_555 n
C16 H18 0.9800(6) 1_555 n
H17 C15 0.9800(6) 1_555 n
H18 C16 0.9800(6) 1_555 n
loop_
_pd_meas_counts_total
_pd_proc_ls_weight
_pd_proc_intensity_bkg_calc
_pd_calc_intensity_total
10215.0 0.0000979 10517.51465 10517.51465
10163.0 0.0000984 10394.68359 10394.68555
10134.0 0.0000987 10288.70117 10288.70605
10153.0 0.0000985 10198.12012 10198.12598
10015.0 0.0000999 10121.56250 10121.57031
9949.0 0.0001005 10057.75488 10057.76367
10026.0 0.0000997 10005.49121 10005.50195
10167.0 0.0000984 9963.65625 9963.66699
10096.0 0.0000990 9931.20020 9931.21191
10070.0 0.0000993 9907.14844 9907.16016
10036.0 0.0000996 9890.59082 9890.60254
10190.0 0.0000981 9880.68262 9880.69434
10156.0 0.0000985 9876.63672 9876.64941
9997.0 0.0001000 9877.72754 9877.74023
9977.0 0.0001002 9883.28125 9883.29395
10074.0 0.0000993 9892.67188 9892.68457
10209.0 0.0000980 9905.32910 9905.34180
10174.0 0.0000983 9920.72266 9920.73438
9927.0 0.0001007 9938.36719 9938.37891
10174.0 0.0000983 9957.81738 9957.82910
9931.0 0.0001007 9978.66992 9978.68164
10190.0 0.0000981 10000.55273 10000.56348
10096.0 0.0000990 10023.13184 10023.14258
10095.0 0.0000991 10046.10156 10046.11230
10137.0 0.0000986 10069.19141 10069.20117
10013.0 0.0000999 10092.15430 10092.16309
10122.0 0.0000988 10114.77051 10114.77930
10104.0 0.0000990 10136.84863 10136.85840
10017.0 0.0000998 10158.21777 10158.22559
10072.0 0.0000993 10178.72754 10178.73633
10253.0 0.0000975 10198.25000 10198.25781
10032.0 0.0000997 10216.67676 10216.68359
10148.0 0.0000985 10233.91211 10233.91992
10114.0 0.0000989 10249.88281 10249.89063
10140.0 0.0000986 10264.52637 10264.53320
10000.0 0.0001000 10277.79688 10277.80371
9837.0 0.0001017 10289.65820 10289.66406
10264.0 0.0000974 10300.08887 10300.09473
10099.0 0.0000990 10309.07520 10309.08105
10051.0 0.0000995 10316.61816 10316.62402
10089.0 0.0000991 10322.72168 10322.72852
10155.0 0.0000985 10327.40430 10327.41016
10315.0 0.0000969 10330.68652 10330.69238
10156.0 0.0000985 10332.59863 10332.60449
10203.0 0.0000980 10333.17676 10333.18164
10083.0 0.0000992 10332.45996 10332.46582
10201.0 0.0000980 10330.49512 10330.50098
10192.0 0.0000981 10327.33105 10327.33691
10089.0 0.0000991 10323.02246 10323.02832
10107.0 0.0000989 10317.62500 10317.63086
10109.0 0.0000989 10311.19727 10311.20313
10294.0 0.0000971 10303.80078 10303.80762
10134.0 0.0000987 10295.49902 10295.50488
10220.0 0.0000978 10286.35645 10286.36328
10293.0 0.0000972 10276.43750 10276.44434
10320.0 0.0000969 10265.80957 10265.81641
9972.0 0.0001003 10254.53809 10254.54492
10017.0 0.0000998 10242.69043 10242.69727
10199.0 0.0000980 10230.33105 10230.33789
10019.0 0.0000998 10217.52832 10217.53613
10254.0 0.0000975 10204.34570 10204.35352
10055.0 0.0000995 10190.84961 10190.85742
10140.0 0.0000986 10177.10059 10177.10840
10166.0 0.0000984 10163.16309 10163.17090
10109.0 0.0000989 10149.09570 10149.10352
10290.0 0.0000972 10134.95898 10134.96777
10172.0 0.0000983 10120.80957 10120.81836
10032.0 0.0000997 10106.70410 10106.71289
9881.0 0.0001012 10092.69531 10092.70410
10236.0 0.0000977 10078.83691 10078.84570
10336.0 0.0000967 10065.17578 10065.18457
10151.0 0.0000985 10051.76172 10051.77148
10220.0 0.0000978 10038.63965 10038.64941
10131.0 0.0000987 10025.85449 10025.86426
10188.0 0.0000982 10013.44434 10013.45410
10266.0 0.0000974 10001.45117 10001.46094
10247.0 0.0000976 9989.91016 9989.91992
10228.0 0.0000978 9978.85449 9978.86426
10140.0 0.0000986 9968.31836 9968.32813
10245.0 0.0000976 9958.33008 9958.34082
10326.0 0.0000968 9948.91895 9948.92871
10150.0 0.0000985 9940.10742 9940.11719
10284.0 0.0000972 9931.92090 9931.93066
10305.0 0.0000970 9924.37793 9924.38867
10100.0 0.0000990 9917.49902 9917.50977
10135.0 0.0000987 9911.30078 9911.31055
10193.0 0.0000981 9905.79590 9905.80566
10124.0 0.0000988 9900.99707 9901.00684
10073.0 0.0000993 9896.91504 9896.92578
10232.0 0.0000977 9893.55762 9893.56738
10186.0 0.0000982 9890.93066 9890.94141
10137.0 0.0000986 9889.04004 9889.04980
10078.0 0.0000992 9887.88672 9887.89746
10170.0 0.0000983 9887.47266 9887.48242
10231.0 0.0000977 9887.79590 9887.80566
10162.0 0.0000984 9888.85449 9888.86426
10057.0 0.0000994 9890.64355 9890.65332
10219.0 0.0000979 9893.15918 9893.16895
10164.0 0.0000984 9896.39160 9896.40137
9962.0 0.0001004 9900.33398 9900.34375
9985.0 0.0001002 9904.97656 9904.98633
10048.0 0.0000995 9910.30664 9910.31641
10083.0 0.0000992 9916.31250 9916.32129
10133.0 0.0000987 9922.98047 9922.98926
10005.0 0.0001000 9930.29590 9930.30566
10064.0 0.0000994 9938.24316 9938.25195
10061.0 0.0000994 9946.80469 9946.81348
10056.0 0.0000994 9955.96387 9955.97266
9951.0 0.0001005 9965.70215 9965.71094
10150.0 0.0000985 9976.00000 9976.00879
10044.0 0.0000996 9986.83594 9986.84375
9962.0 0.0001004 9998.19043 9998.19922
10084.0 0.0000992 10010.04297 10010.05176
10134.0 0.0000987 10022.37109 10022.37891
10116.0 0.0000989 10035.15039 10035.15820
10050.0 0.0000995 10048.36133 10048.36914
10046.0 0.0000995 10061.97852 10061.98535
10085.0 0.0000992 10075.97852 10075.98633
10044.0 0.0000996 10090.33691 10090.34375
10134.0 0.0000987 10105.03125 10105.03906
10207.0 0.0000980 10120.03711 10120.04395
10083.0 0.0000992 10135.32813 10135.33496
10171.0 0.0000983 10150.87988 10150.88672
10138.0 0.0000986 10166.66992 10166.67578
10027.0 0.0000997 10182.67188 10182.67773
9969.0 0.0001003 10198.86133 10198.86719
10009.0 0.0000999 10215.21289 10215.21973
10051.0 0.0000995 10231.70215 10231.70898
10134.0 0.0000987 10248.30762 10248.31348
10047.0 0.0000995 10265.00195 10265.00781
10168.0 0.0000983 10281.76172 10281.76855
10106.0 0.0000990 10298.56348 10298.56934
9994.0 0.0001001 10315.38379 10315.38965
10010.0 0.0000999 10332.20117 10332.20703
10076.0 0.0000992 10348.98926 10348.99512
10037.0 0.0000996 10365.72754 10365.73340
10285.0 0.0000972 10382.39551 10382.40039
10156.0 0.0000985 10398.96875 10398.97461
10035.0 0.0000997 10415.42773 10415.43359
10041.0 0.0000996 10431.74902 10431.75488
9945.0 0.0001006 10447.91602 10447.92188
10229.0 0.0000978 10463.90723 10463.91309
10305.0 0.0000970 10479.70313 10479.70898
10255.0 0.0000975 10495.28320 10495.28906
10114.0 0.0000989 10510.63281 10510.63867
10311.0 0.0000970 10525.73242 10525.73828
10299.0 0.0000971 10540.56445 10540.57031
10444.0 0.0000957 10555.11133 10555.11816
10465.0 0.0000956 10569.36035 10569.36719
10588.0 0.0000944 10583.29395 10583.30078
10391.0 0.0000962 10596.89746 10596.90430
10370.0 0.0000964 10610.15723 10610.16406
10294.0 0.0000971 10623.05859 10623.06543
10275.0 0.0000973 10635.59082 10635.59766
10098.0 0.0000990 10647.73926 10647.74609
10196.0 0.0000981 10659.49414 10659.50098
10213.0 0.0000979 10670.84180 10670.84961
10222.0 0.0000978 10681.77441 10681.78223
10102.0 0.0000990 10692.28125 10692.29004
10043.0 0.0000996 10702.35449 10702.36230
10091.0 0.0000991 10711.98242 10711.99121
10215.0 0.0000979 10721.16113 10721.16992
10082.0 0.0000992 10729.88086 10729.88965
10170.0 0.0000983 10738.13477 10738.14453
10149.0 0.0000985 10745.91797 10745.92773
10215.0 0.0000979 10753.22559 10753.23633
10100.0 0.0000990 10760.05176 10760.06250
10290.0 0.0000972 10766.39355 10766.40430
10233.0 0.0000977 10772.24512 10772.25586
10218.0 0.0000979 10777.60449 10777.61621
10272.0 0.0000974 10782.47070 10782.48340
10225.0 0.0000978 10786.84082 10786.85352
10421.0 0.0000960 10790.71289 10790.72559
10228.0 0.0000978 10794.08789 10794.10059
10395.0 0.0000962 10796.96387 10796.97656
10594.0 0.0000944 10799.34180 10799.35547
10398.0 0.0000962 10801.22266 10801.23730
10392.0 0.0000962 10802.60840 10802.62305
10426.0 0.0000959 10803.50000 10803.51563
10453.0 0.0000957 10803.90137 10803.91699
10580.0 0.0000945 10803.81348 10803.82910
10554.0 0.0000948 10803.24023 10803.25684
10637.0 0.0000940 10802.18652 10802.20313
10792.0 0.0000927 10800.65430 10800.67188
10892.0 0.0000918 10798.65039 10798.66895
10834.0 0.0000923 10796.17871 10796.19727
10876.0 0.0000919 10793.24512 10793.26465
10812.0 0.0000925 10789.85645 10789.87598
10992.0 0.0000910 10786.01660 10786.03613
11073.0 0.0000903 10781.73340 11294.16016
11543.0 0.0000866 10777.01367 11309.33789
11340.0 0.0000882 10771.86523 11577.29980
11597.0 0.0000862 10766.29492 11603.79980
11858.0 0.0000843 10760.31152 11631.83887
12106.0 0.0000826 10753.92188 11661.58301
12444.0 0.0000804 10747.13477 11693.21777
12741.0 0.0000785 10739.95996 11726.95020
12969.0 0.0000771 10732.40527 11763.01074
13423.0 0.0000745 10724.48047 11801.64746
13540.0 0.0000739 10716.19434 11843.14160
13868.0 0.0000721 10707.55762 11887.80566
13947.0 0.0000717 10698.57910 11935.98926
14068.0 0.0000711 10689.26953 11988.08594
14227.0 0.0000703 10679.63867 12044.52930
13825.0 0.0000723 10669.69629 12105.81738
13757.0 0.0000727 10659.45313 12172.50781
13815.0 0.0000724 10648.92188 12245.23438
13860.0 0.0000722 10638.10938 12324.71680
13780.0 0.0000726 10627.02930 12411.77734
13794.0 0.0000725 10615.69141 12507.36035
13754.0 0.0000727 10604.10840 12612.55078
13755.0 0.0000727 10592.28906 12728.59766
13823.0 0.0000723 10580.24512 12856.95801
13998.0 0.0000714 10567.98828 12999.32422
14298.0 0.0000699 10555.53027 13157.68164
14202.0 0.0000704 10542.87988 13334.36328
14717.0 0.0000679 10530.04980 13532.13477
14627.0 0.0000684 10517.05176 13754.28711
14776.0 0.0000677 10503.89746 14004.76367
14997.0 0.0000667 10490.59570 14288.31055
15483.0 0.0000646 10477.15918 14610.69922
15566.0 0.0000642 10463.59961 14978.98340
16177.0 0.0000618 10449.92773 15401.87402
16763.0 0.0000597 10436.15234 15890.24902
17293.0 0.0000578 10422.28613 16457.93945
17987.0 0.0000556 10408.34082 17123.02344
19297.0 0.0000518 10394.32520 17910.23633
20212.0 0.0000495 10380.25195 18855.66211
22000.0 0.0000455 10366.12988 20015.83008
23726.0 0.0000421 10351.96973 21484.56055
26022.0 0.0000384 10337.78125 23421.27539
29380.0 0.0000340 10323.57813 26092.70898
33762.0 0.0000296 10309.36523 29923.46680
39691.0 0.0000252 10295.15527 35539.13281
47355.0 0.0000211 10280.95801 43771.25000
58096.0 0.0000172 10266.78320 55585.50781
73738.0 0.0000136 10252.63867 71902.25781
92254.0 0.0000108 10238.53516 93301.57813
115873.0 8.63e-6 10224.48047 119615.74219
142857.0 7.00e-6 10210.48535 149380.56250
171579.0 5.83e-6 10196.55762 179152.34375
197746.0 5.06e-6 10182.70410 203273.34375
213689.0 4.68e-6 10168.93555 215635.98438
216181.0 4.63e-6 10155.25977 213233.04688
202666.0 4.93e-6 10141.68359 197438.98438
178606.0 5.60e-6 10128.21484 172331.54688
143768.0 6.96e-6 10114.86230 143079.51563
112451.0 8.89e-6 10101.63281 114381.20313
86430.0 0.0000116 10088.53125 89248.44531
65564.0 0.0000153 10075.56836 68943.46875
50821.0 0.0000197 10062.74707 53516.20313
40016.0 0.0000250 10050.07715 42342.11719
32285.0 0.0000310 10037.56348 34520.66016
27451.0 0.0000364 10025.21094 29141.63086
23937.0 0.0000418 10013.02637 25434.53906
21200.0 0.0000472 10001.01465 22822.37109
19128.0 0.0000523 9989.18262 20911.70898
17343.0 0.0000577 9977.53320 19452.71484
16317.0 0.0000613 9966.07324 18293.90234
15698.0 0.0000637 9954.80566 17344.83008
14859.0 0.0000673 9943.73633 16550.43359
14042.0 0.0000712 9932.86816 15875.41309
13831.0 0.0000723 9922.20605 15295.59570
13381.0 0.0000747 9911.75293 14793.35742
13229.0 0.0000756 9901.51367 14355.26270
12498.0 0.0000800 9891.48828 13970.74609
12418.0 0.0000805 9881.68359 13631.36328
12060.0 0.0000829 9872.09961 13330.26758
11693.0 0.0000855 9862.74121 13061.86230
11474.0 0.0000872 9853.60840 12821.53809
11586.0 0.0000863 9844.70410 12605.46582
11543.0 0.0000866 9836.03027 12410.45605
11243.0 0.0000889 9827.58984 12233.81934
11185.0 0.0000894 9819.38184 12073.29297
11058.0 0.0000904 9811.40918 11926.94922
10985.0 0.0000910 9803.67188 11793.14453
10772.0 0.0000928 9796.17188 11670.46973
10781.0 0.0000928 9788.90918 11557.71289
10764.0 0.0000929 9781.88379 11453.82031
10719.0 0.0000933 9775.09473 11357.88281
10617.0 0.0000942 9768.54492 11269.10156
10541.0 0.0000949 9762.23242 11186.78418
10389.0 0.0000963 9756.15625 11110.31836
10430.0 0.0000959 9750.31738 11039.16406
10492.0 0.0000953 9744.71289 10972.84473
10493.0 0.0000953 9739.34375 10910.94043
10274.0 0.0000973 9734.20801 10853.07715
10229.0 0.0000978 9729.30273 10798.91602
10378.0 0.0000964 9724.62891 10748.16113
10311.0 0.0000970 9720.18457 10700.54297
10448.0 0.0000957 9715.96680 10655.82031
10150.0 0.0000985 9711.97266 10613.77832
10147.0 0.0000986 9708.20215 10574.21777
10156.0 0.0000985 9704.65137 10536.96387
10197.0 0.0000981 9701.31836 10501.85254
10061.0 0.0000994 9698.20020 9969.96289
10032.0 0.0000997 9695.29492 9956.78125
10213.0 0.0000979 9692.59863 9692.63281
10077.0 0.0000992 9690.10840 9690.14258
10019.0 0.0000998 9687.82129 9687.85449
9890.0 0.0001011 9685.73438 9685.76758
10058.0 0.0000994 9683.84277 9683.87500
10059.0 0.0000994 9682.14355 9682.17578
9797.0 0.0001021 9680.63379 9680.66602
10126.0 0.0000988 9679.30957 9679.34082
10045.0 0.0000996 9678.16504 9678.19629
10131.0 0.0000987 9677.19922 9677.22949
9963.0 0.0001004 9676.40625 9676.43555
10037.0 0.0000996 9675.78223 9675.81055
10096.0 0.0000990 9675.32227 9675.35059
10075.0 0.0000993 9675.02246 9675.05078
9939.0 0.0001006 9674.87891 9674.90625
9949.0 0.0001005 9674.88672 9674.91309
9766.0 0.0001024 9675.04004 9675.06641
10058.0 0.0000994 9675.33594 9675.36230
9944.0 0.0001006 9675.76953 9675.79492
9862.0 0.0001014 9676.33594 9676.36035
9984.0 0.0001002 9677.02832 9677.05273
9945.0 0.0001006 9677.84473 9677.86914
9736.0 0.0001027 9678.77930 9678.80176
9863.0 0.0001014 9679.82520 9679.84766
9971.0 0.0001003 9680.98047 9681.00195
10019.0 0.0000998 9682.23730 9682.25879
9669.0 0.0001034 9683.59180 9683.61328
9864.0 0.0001014 9685.04004 9685.06055
9931.0 0.0001007 9686.57520 9686.59473
9740.0 0.0001027 9688.19238 9688.21191
9862.0 0.0001014 9689.88672 9689.90527
9812.0 0.0001019 9691.65332 9691.67090
9856.0 0.0001015 9693.48730 9693.50391
9833.0 0.0001017 9695.38184 9695.39844
9831.0 0.0001017 9697.33301 9697.34961
9666.0 0.0001035 9699.33691 9699.35254
9834.0 0.0001017 9701.38574 9701.40039
9939.0 0.0001006 9703.47656 9703.49023
9734.0 0.0001027 9705.60254 9705.61621
9739.0 0.0001027 9707.75977 9707.77246
9689.0 0.0001032 9709.94238 9709.95508
9793.0 0.0001021 9712.14648 9712.15918
9913.0 0.0001009 9714.36621 9714.37793
9694.0 0.0001032 9716.59668 9716.60742
9786.0 0.0001022 9718.83301 9718.84277
9764.0 0.0001024 9721.06934 9721.07910
9753.0 0.0001025 9723.30176 9723.31152
9802.0 0.0001020 9725.52637 9725.53516
9753.0 0.0001025 9727.73633 9727.74512
9788.0 0.0001022 9729.92871 9729.93652
9816.0 0.0001019 9732.09766 9732.10449
9777.0 0.0001023 9734.23926 9734.24609
9961.0 0.0001004 9736.34863 9736.35449
9948.0 0.0001005 9738.42188 9738.42676
10016.0 0.0000998 9740.45313 9740.45703
9946.0 0.0001005 9742.43848 9742.44238
9740.0 0.0001027 9744.37500 9744.37793
9647.0 0.0001037 9746.25684 9746.25977
9657.0 0.0001036 9748.08008 9748.08301
9933.0 0.0001007 9749.84180 9749.84375
9640.0 0.0001037 9751.53613 9751.53809
9711.0 0.0001030 9753.16113 9753.16211
9776.0 0.0001023 9754.71094 9754.71191
9822.0 0.0001018 9756.18359 9756.18359
9747.0 0.0001026 9757.57422 9757.57422
9722.0 0.0001029 9758.87988 9758.87891
9731.0 0.0001028 9760.09570 9760.09473
9830.0 0.0001017 9761.21973 9761.21875
9759.0 0.0001025 9762.24902 9762.24707
9783.0 0.0001022 9763.17871 9763.17578
9722.0 0.0001029 9764.00586 9764.00293
9676.0 0.0001033 9764.72852 9764.72461
9717.0 0.0001029 9765.34180 9765.33789
9763.0 0.0001024 9765.84473 9765.84082
9637.0 0.0001038 9766.23340 9766.22949
9645.0 0.0001037 9766.50586 9766.50098
9604.0 0.0001041 9766.65918 9766.65332
9832.0 0.0001017 9766.69043 9766.68457
9676.0 0.0001033 9766.59668 9766.59082
9887.0 0.0001011 9766.37695 9766.37109
9585.0 0.0001043 9766.02832 9766.02148
9852.0 0.0001015 9765.54883 9765.54199
9755.0 0.0001025 9764.93652 9764.92871
9722.0 0.0001029 9764.18945 9764.18066
9851.0 0.0001015 9763.30469 9763.29688
9539.0 0.0001048 9762.28223 9762.27344
9814.0 0.0001019 9761.11914 9761.11035
10082.0 0.0000992 9759.81543 9759.80566
9961.0 0.0001004 9758.36719 9758.35742
9779.0 0.0001023 9756.77539 9756.76465
9875.0 0.0001013 9755.03711 9755.02734
9765.0 0.0001024 9753.15234 9753.14160
9850.0 0.0001015 9751.11914 9751.10840
10009.0 0.0000999 9748.93750 9748.92676
9964.0 0.0001004 9746.60645 9746.59473
9836.0 0.0001017 9744.12402 9744.11230
9938.0 0.0001006 9741.49121 9926.51465
10099.0 0.0000990 9738.70703 9929.08887
9938.0 0.0001006 9735.76953 10021.62402
9992.0 0.0001001 9732.68066 10026.94824
10115.0 0.0000989 9729.43848 10032.49707
10256.0 0.0000975 9726.04297 10038.29199
10103.0 0.0000990 9722.49512 10044.35840
10319.0 0.0000969 9718.79297 10050.71973
10332.0 0.0000968 9714.93848 10057.40820
10332.0 0.0000968 9710.93164 10064.45313
10381.0 0.0000963 9706.77148 10071.88672
10526.0 0.0000950 9702.45996 10079.74805
10494.0 0.0000953 9697.99609 10088.07422
10597.0 0.0000944 9693.38184 10096.91113
10854.0 0.0000921 9688.61621 10106.30273
10881.0 0.0000919 9683.70020 10116.30078
10831.0 0.0000923 9678.63574 10126.96094
11004.0 0.0000909 9673.42383 10138.34570
10910.0 0.0000917 9668.06445 10150.51758
10967.0 0.0000912 9662.55762 10163.55176
11137.0 0.0000898 9656.90625 10177.52734
11127.0 0.0000899 9651.11230 10192.53223
10955.0 0.0000913 9645.17383 10208.66016
10848.0 0.0000922 9639.09473 10226.02148
10947.0 0.0000913 9632.87500 10244.73047
10935.0 0.0000914 9626.51758 10264.91797
10656.0 0.0000938 9620.02344 10286.72754
10965.0 0.0000912 9613.39258 10310.31836
10715.0 0.0000933 9606.62891 10335.86914
10414.0 0.0000960 9599.73438 10363.58105
10504.0 0.0000952 9592.70801 10393.67383
10551.0 0.0000948 9585.55371 10426.39551
10580.0 0.0000945 9578.27344 10462.03125
10544.0 0.0000948 9570.86816 10500.89551
10866.0 0.0000920 9563.34180 10543.34766
10477.0 0.0000954 9555.69434 10589.79395
10484.0 0.0000954 9547.92871 10640.69824
10609.0 0.0000943 9540.04785 10696.59180
10658.0 0.0000938 9532.05371 10758.08105
10765.0 0.0000929 9523.94629 10825.86230
10923.0 0.0000915 9515.73047 10900.74609
10930.0 0.0000915 9507.40820 10983.67090
11063.0 0.0000904 9498.98340 11075.72656
10938.0 0.0000914 9490.45508 11178.19043
10991.0 0.0000910 9481.82715 11292.56934
11352.0 0.0000881 9473.10352 11420.64063
11542.0 0.0000866 9464.28613 11564.52246
11690.0 0.0000855 9455.37598 11726.74609
11807.0 0.0000847 9446.37695 11910.37402
11985.0 0.0000834 9437.29297 12119.14355
12188.0 0.0000820 9428.12500 12357.69629
12486.0 0.0000801 9418.87598 12631.92871
12952.0 0.0000772 9409.54980 12949.58008
13461.0 0.0000743 9400.14746 13321.21582
13955.0 0.0000717 9390.67383 13761.86523
14682.0 0.0000681 9381.12988 14293.62793
15688.0 0.0000637 9371.51953 14949.58789
16377.0 0.0000611 9361.84473 15779.15723
17749.0 0.0000563 9352.10938 16854.52734
19186.0 0.0000521 9342.31738 18277.13086
21113.0 0.0000474 9332.46777 20181.94531
23748.0 0.0000421 9322.56738 22736.66406
26697.0 0.0000375 9312.61719 26132.40430
30491.0 0.0000328 9302.62207 30563.26172
35462.0 0.0000282 9292.58203 36192.89453
42475.0 0.0000235 9282.50195 43105.45313
50015.0 0.0000200 9272.38379 51233.21484
57839.0 0.0000173 9262.23242 60246.96484
66742.0 0.0000150 9252.04883 69412.99219
75388.0 0.0000133 9241.83594 77516.66406
80792.0 0.0000124 9231.59766 83093.77344
84333.0 0.0000119 9221.33691 85055.75000
83680.0 0.0000120 9211.05566 83195.79688
79329.0 0.0000126 9200.75781 78064.11719
72307.0 0.0000138 9190.44629 70593.37500
63601.0 0.0000157 9180.12402 61892.96875
52877.0 0.0000189 9169.79199 53037.62500
44812.0 0.0000223 9159.45508 44826.22266
37513.0 0.0000267 9149.11621 37697.76953
31489.0 0.0000318 9138.77832 31799.42969
26719.0 0.0000374 9128.44238 27092.85938
22888.0 0.0000437 9118.11230 23439.60156
20013.0 0.0000500 9107.79102 20658.95117
17694.0 0.0000565 9097.48145 18565.40430
16365.0 0.0000611 9087.18750 16991.16992
15251.0 0.0000656 9076.90918 15797.27246
14011.0 0.0000714 9066.65039 14876.25195
13389.0 0.0000747 9056.41406 14149.45508
12664.0 0.0000790 9046.20410 13561.68750
12105.0 0.0000826 9036.01953 13075.27832
11725.0 0.0000853 9025.86621 12664.80566
11570.0 0.0000864 9015.74512 12312.99902
11080.0 0.0000903 9005.66016 12008.12207
10824.0 0.0000924 8995.61230 11740.98145
10758.0 0.0000930 8985.60449 11505.37305
10561.0 0.0000947 8975.63965 11296.42188
10442.0 0.0000958 8965.72070 11109.86133
10333.0 0.0000968 8955.84668 10942.58008
10118.0 0.0000988 8946.02344 10791.91211
9947.0 0.0001005 8936.25195 10655.63184
10007.0 0.0000999 8926.53613 10531.87891
9717.0 0.0001029 8916.87402 10419.08008
9794.0 0.0001021 8907.27246 10315.90137
9625.0 0.0001039 8897.72949 10221.20898
9606.0 0.0001041 8888.25098 10134.03125
9648.0 0.0001036 8878.83594 10053.53027
9525.0 0.0001050 8869.48730 9978.98242
9350.0 0.0001070 8860.20801 9909.76465
9345.0 0.0001070 8850.99805 9845.32715
9435.0 0.0001060 8841.86230 9785.19434
9301.0 0.0001075 8832.79883 9728.95117
9335.0 0.0001071 8823.81152 9676.22852
9163.0 0.0001091 8814.90137 9626.70410
9233.0 0.0001083 8806.07129 9580.09180
9098.0 0.0001099 8797.32129 9536.13379
9113.0 0.0001097 8788.65332 9494.60742
9150.0 0.0001093 8780.07031 9455.31055
9173.0 0.0001090 8771.57227 9418.06250
9081.0 0.0001101 8763.16016 9382.70605
9109.0 0.0001098 8754.83691 9349.08887
9236.0 0.0001083 8746.60156 9317.08691
9107.0 0.0001098 8738.45898 9286.58105
8910.0 0.0001122 8730.40625 9257.46484
9084.0 0.0001101 8722.44727 9229.64063
9056.0 0.0001104 8714.58203 9203.02344
8983.0 0.0001113 8706.81348 9177.53711
9032.0 0.0001107 8699.13867 9153.10352
9053.0 0.0001105 8691.56250 9129.65918
9056.0 0.0001104 8684.08398 9107.14746
8959.0 0.0001116 8676.70410 9085.51367
8998.0 0.0001111 8669.42383 9064.70410
8899.0 0.0001124 8662.24414 9044.67578
8779.0 0.0001139 8655.16504 9025.38770
9053.0 0.0001105 8648.18848 9006.80273
8826.0 0.0001133 8641.31348 8988.88477
8881.0 0.0001126 8634.54199 8971.60059
8872.0 0.0001127 8627.87305 8954.92480
8937.0 0.0001119 8621.30762 8938.82617
8864.0 0.0001128 8614.84766 8923.28711
8787.0 0.0001138 8608.49219 8908.28418
8963.0 0.0001116 8602.24023 8893.79688
8857.0 0.0001129 8596.09375 8698.25293
8814.0 0.0001135 8590.05273 8689.74902
8865.0 0.0001128 8584.11719 8681.51758
8817.0 0.0001134 8578.28613 8583.37305
8656.0 0.0001155 8572.56152 8578.18164
8854.0 0.0001129 8566.94238 8573.18848
8787.0 0.0001138 8561.42773 8568.42090
8635.0 0.0001158 8556.01855 8563.92188
8644.0 0.0001157 8550.71484 8559.75684
8726.0 0.0001146 8545.51563 8556.02148
8664.0 0.0001154 8540.42188 8552.85449
8836.0 0.0001132 8535.43164 8550.45117
8823.0 0.0001133 8530.54590 8549.05859
8824.0 0.0001133 8525.76367 8548.97656
8794.0 0.0001137 8521.08398 8550.52344
8784.0 0.0001138 8516.50781 8553.99805
8642.0 0.0001157 8512.03320 8559.60547
8763.0 0.0001141 8507.66016 8567.35742
8942.0 0.0001118 8503.38867 8576.93164
9003.0 0.0001111 8499.21777 8587.45605
8828.0 0.0001133 8495.14551 8597.31738
9060.0 0.0001104 8491.17285 8604.27051
8836.0 0.0001132 8487.29785 8606.22461
8908.0 0.0001123 8483.51953 8602.28516
8926.0 0.0001120 8479.83887 8592.92676
8846.0 0.0001130 8476.25293 8579.33496
8975.0 0.0001114 8472.76270 8563.00391
8958.0 0.0001116 8469.36523 8545.82617
8877.0 0.0001127 8466.06055 8528.87695
8800.0 0.0001136 8462.84668 8513.40234
8754.0 0.0001142 8459.72363 8499.99902
8613.0 0.0001161 8456.69141 8488.53711
8599.0 0.0001163 8453.74512 8478.98145
8648.0 0.0001156 8450.88770 8471.07129
8598.0 0.0001163 8448.11523 8464.50098
8613.0 0.0001161 8445.42773 8458.98047
8615.0 0.0001161 8442.82324 8454.26074
8592.0 0.0001164 8440.29980 8450.13770
8478.0 0.0001180 8437.85840 8446.46191
8459.0 0.0001182 8435.49609 8443.12402
8578.0 0.0001166 8433.21094 8440.04688
8720.0 0.0001147 8431.00293 8437.18066
8674.0 0.0001153 8428.86914 8434.49414
8641.0 0.0001157 8426.80957 8431.95996
8550.0 0.0001170 8424.82129 8429.56055
8523.0 0.0001173 8422.90430 8427.28613
8500.0 0.0001176 8421.05566 8425.12305
8681.0 0.0001152 8419.27539 8423.06445
8494.0 0.0001177 8417.55957 8421.10352
8486.0 0.0001178 8415.90820 8419.23340
8552.0 0.0001169 8414.32031 8417.45020
8781.0 0.0001139 8412.79297 8415.74707
8538.0 0.0001171 8411.32422 8414.12109
8477.0 0.0001180 8409.91309 8412.56934
8573.0 0.0001166 8408.55762 8411.08691
8557.0 0.0001169 8407.25684 8409.66992
8519.0 0.0001174 8406.00781 8408.31543
8464.0 0.0001181 8404.80957 8407.02246
8286.0 0.0001207 8403.66016 8405.78613
8430.0 0.0001186 8402.55762 8404.60352
8371.0 0.0001195 8401.50098 8403.47461
8471.0 0.0001180 8400.48730 8402.39355
8374.0 0.0001194 8399.51563 8401.36328
8182.0 0.0001222 8398.58398 8400.37500
8466.0 0.0001181 8397.68945 8399.43066
8304.0 0.0001204 8396.83203 8398.52539
8426.0 0.0001187 8396.00781 8397.65820
8219.0 0.0001217 8395.21680 8396.83008
8414.0 0.0001188 8394.45703 8396.03320
8449.0 0.0001184 8393.72461 8395.26758
8335.0 0.0001200 8393.02051 8394.53418
8469.0 0.0001181 8392.34082 8393.82813
8498.0 0.0001177 8391.68457 8393.14453
8572.0 0.0001167 8391.04883 8392.48730
8318.0 0.0001202 8390.43359 8391.85254
8452.0 0.0001183 8389.83496 8391.23535
8391.0 0.0001192 8389.25293 8390.63574
8615.0 0.0001161 8388.68457 8390.05371
8538.0 0.0001171 8388.12793 8389.48340
8873.0 0.0001127 8387.58203 8388.92480
8554.0 0.0001169 8387.04395 8388.37793
8709.0 0.0001148 8386.51172 8387.83691
8637.0 0.0001158 8385.98535 8387.30273
8678.0 0.0001152 8385.46094 8386.77246
8769.0 0.0001140 8384.93750 8386.24414
8806.0 0.0001136 8384.41406 8385.71777
8870.0 0.0001127 8383.88672 8385.18848
8565.0 0.0001168 8383.35449 8384.65527
8761.0 0.0001141 8382.81738 8384.11621
8709.0 0.0001148 8382.27148 8383.57324
8840.0 0.0001131 8381.71582 8383.01953
8677.0 0.0001152 8381.14844 8382.45605
8554.0 0.0001169 8380.56836 8381.60254
8600.0 0.0001163 8379.97266 8381.02148
8299.0 0.0001205 8379.36035 8380.42090
8378.0 0.0001194 8378.72852 8379.66602
8496.0 0.0001177 8378.07813 8379.03516
8477.0 0.0001180 8377.40430 8378.38184
8315.0 0.0001203 8376.70801 8377.70410
8402.0 0.0001190 8375.98633 8377.00391
8418.0 0.0001188 8375.23730 8376.27734
8361.0 0.0001196 8374.45996 8375.52148
8310.0 0.0001203 8373.65234 8374.73730
8376.0 0.0001194 8372.81348 8373.92188
8202.0 0.0001219 8371.94141 8373.07324
8267.0 0.0001210 8371.03516 8372.19238
8153.0 0.0001227 8370.09180 8371.27539
8319.0 0.0001202 8369.11133 8370.32227
8105.0 0.0001234 8368.09180 8369.33105
8379.0 0.0001193 8367.03125 8368.29980
8207.0 0.0001218 8365.92871 8367.22656
8149.0 0.0001227 8364.78320 8366.11230
8199.0 0.0001220 8363.59277 8364.95313
8285.0 0.0001207 8362.35547 8363.75098
8194.0 0.0001220 8361.07227 8362.50195
8237.0 0.0001214 8359.73828 8361.20313
8469.0 0.0001181 8358.35547 8359.85742
8298.0 0.0001205 8356.92090 8358.46289
8113.0 0.0001233 8355.43359 8357.01563
8156.0 0.0001226 8353.89258 8355.51563
8239.0 0.0001214 8352.29688 8353.96387
8251.0 0.0001212 8350.64453 8352.35742
8164.0 0.0001225 8348.93555 8350.69629
8231.0 0.0001215 8347.16797 8348.97754
8236.0 0.0001214 8345.34082 8347.20215
8185.0 0.0001222 8343.45410 8345.36816
8285.0 0.0001207 8341.50488 8343.47461
8227.0 0.0001216 8339.49316 8341.52148
8163.0 0.0001225 8337.41895 8339.50781
8058.0 0.0001241 8335.27930 8337.43262
8043.0 0.0001243 8333.07520 8335.29492
8036.0 0.0001244 8330.80371 8333.09277
8091.0 0.0001236 8328.46680 8330.83008
7962.0 0.0001256 8326.06152 8328.50098
8157.0 0.0001226 8323.58691 8326.10742
8081.0 0.0001237 8321.04395 8323.64941
7858.0 0.0001273 8318.43066 8321.12402
7978.0 0.0001253 8315.74707 8318.53418
8008.0 0.0001249 8312.99121 8315.87695
7947.0 0.0001258 8310.16406 8313.15234
7886.0 0.0001268 8307.26367 8310.36133
8114.0 0.0001232 8304.29004 8307.50293
7984.0 0.0001253 8301.24316 8304.57715
7927.0 0.0001262 8298.12207 8301.58398
7802.0 0.0001282 8294.92578 8298.52344
7839.0 0.0001276 8291.65332 8295.39551
7980.0 0.0001253 8288.30664 8292.20117
7907.0 0.0001265 8284.88379 8288.94043
8057.0 0.0001241 8281.38379 8285.61328
7993.0 0.0001251 8277.80762 8282.21973
8042.0 0.0001243 8274.15430 8278.76172
7899.0 0.0001266 8270.42383 8275.23926
7822.0 0.0001278 8266.61621 8271.65234
7859.0 0.0001272 8262.72949 8268.00488
7930.0 0.0001261 8258.76563 8264.29492
7966.0 0.0001255 8254.72461 8260.52637
8009.0 0.0001249 8250.60449 8256.69922
7848.0 0.0001274 8246.40625 8252.81641
8067.0 0.0001240 8242.12891 8248.88086
7990.0 0.0001252 8237.77441 8244.89355
7924.0 0.0001262 8233.34082 8240.85938
7847.0 0.0001274 8228.82910 8236.78125
8010.0 0.0001248 8224.23926 8232.66309
8178.0 0.0001223 8219.57129 8228.51074
7926.0 0.0001262 8214.82617 8224.32910
8095.0 0.0001235 8210.00195 8220.12598
7988.0 0.0001252 8205.09961 8215.90723
7968.0 0.0001255 8200.12109 8211.68359
8002.0 0.0001250 8195.06445 8207.46680
8049.0 0.0001242 8189.93115 8203.26758
8242.0 0.0001213 8184.72070 8199.09766
7964.0 0.0001256 8179.43457 8194.97363
8038.0 0.0001244 8174.07227 8190.91455
8082.0 0.0001237 8168.63379 8186.93799
8039.0 0.0001244 8163.12012 8183.06396
8082.0 0.0001237 8157.53174 8179.31738
8016.0 0.0001248 8151.86963 8175.72168
8099.0 0.0001235 8146.13232 8172.30225
8139.0 0.0001229 8140.32275 8169.08496
8151.0 0.0001227 8134.43945 8166.09619
8070.0 0.0001239 8128.48438 8163.35938
8265.0 0.0001210 8122.45801 8160.89453
8206.0 0.0001219 8116.35938 8158.71240
8164.0 0.0001225 8110.19092 8156.81445
8355.0 0.0001197 8103.95313 8155.18115
8376.0 0.0001194 8097.64502 8153.76758
8452.0 0.0001183 8091.26904 8152.49170
8454.0 0.0001183 8084.82520 8151.22949
8472.0 0.0001180 8078.31494 8149.80713
8589.0 0.0001164 8071.73779 8148.00098
8696.0 0.0001150 8065.09521 8145.55615
8915.0 0.0001122 8058.38818 8142.21094
8934.0 0.0001119 8051.61719 8137.73535
9107.0 0.0001098 8044.78418 8131.96240
9131.0 0.0001095 8037.88818 8124.82129
9294.0 0.0001076 8030.93115 8449.67188
9518.0 0.0001051 8023.91406 8449.56836
9832.0 0.0001017 8016.83789 8448.86914
9728.0 0.0001028 8009.70313 8447.83398
9874.0 0.0001013 8002.51074 8614.06641
10111.0 0.0000989 7995.26221 8617.99805
10318.0 0.0000969 7987.95898 8622.57031
10267.0 0.0000974 7980.60010 8627.98340
10044.0 0.0000996 7973.18848 8634.39844
9889.0 0.0001011 7965.72461 8641.94238
9846.0 0.0001016 7958.20996 8650.71387
9841.0 0.0001016 7950.64453 8660.79199
9691.0 0.0001032 7943.03027 8672.24512
9696.0 0.0001031 7935.36816 8685.13184
9444.0 0.0001059 7927.65967 8699.51953
9470.0 0.0001056 7919.90527 8715.46680
9334.0 0.0001071 7912.10645 8733.04590
9516.0 0.0001051 7904.26416 8752.33691
9248.0 0.0001081 7896.38037 8773.42480
9287.0 0.0001077 7888.45508 8796.41309
9259.0 0.0001080 7880.49023 8821.41309
9236.0 0.0001083 7872.48682 8848.55371
9026.0 0.0001108 7864.44580 8877.97949
9113.0 0.0001097 7856.36963 8909.85645
8997.0 0.0001111 7848.25830 8944.36523
9075.0 0.0001102 7840.11328 8981.71094
8980.0 0.0001114 7831.93604 9022.12695
9089.0 0.0001100 7823.72852 9065.87012
9169.0 0.0001091 7815.49072 9113.23145
9084.0 0.0001101 7807.22461 9164.53809
9123.0 0.0001096 7798.93066 9220.15625
9176.0 0.0001090 7790.61230 9280.49707
9252.0 0.0001081 7782.26904 9346.02441
9506.0 0.0001052 7773.90186 9417.26172
9456.0 0.0001058 7765.51318 9494.80371
9708.0 0.0001030 7757.10449 9579.32031
9530.0 0.0001049 7748.67578 9671.57520
9703.0 0.0001031 7740.22949 9772.44629
9735.0 0.0001027 7731.76660 9882.92773
9949.0 0.0001005 7723.28906 10004.17090
10037.0 0.0000996 7714.79688 10137.49219
10258.0 0.0000975 7706.29248 10284.42773
10390.0 0.0000962 7697.77637 10446.75098
10455.0 0.0000956 7689.25146 10627.42285
10785.0 0.0000927 7680.71729 10827.12207
10957.0 0.0000913 7672.17578 11049.58496
11250.0 0.0000889 7663.62891 11298.21582
11662.0 0.0000857 7655.07715 11577.51758
11955.0 0.0000836 7646.52295 11891.52051
12528.0 0.0000798 7637.96631 12246.66797
12851.0 0.0000778 7629.40918 12650.46680
13539.0 0.0000739 7620.85254 13115.00488
14188.0 0.0000705 7612.29932 13648.35645
14953.0 0.0000669 7603.74902 14270.80176
15923.0 0.0000628 7595.20264 15008.06445
17215.0 0.0000581 7586.66357 15899.19629
18556.0 0.0000539 7578.13232 16997.87109
20025.0 0.0000499 7569.60840 18387.34961
22523.0 0.0000444 7561.09521 20184.49805
24921.0 0.0000401 7552.59326 22548.87695
27787.0 0.0000360 7544.10498 25686.83008
32023.0 0.0000312 7535.62988 29847.90625
36561.0 0.0000274 7527.16943 35309.85547
42596.0 0.0000235 7518.72607 42349.36328
49559.0 0.0000202 7510.30127 51197.17578
58957.0 0.0000170 7501.89453 61975.29688
69352.0 0.0000144 7493.50781 74609.07031
81601.0 0.0000123 7485.14307 88698.90625
97131.0 0.0000103 7476.80127 103349.10156
110105.0 9.08e-6 7468.48291 117037.44531
122880.0 8.14e-6 7460.18994 127779.60938
130304.0 7.67e-6 7451.92334 133816.10938
133229.0 7.51e-6 7443.68408 134437.93750
130778.0 7.65e-6 7435.47461 130079.66406
124594.0 8.03e-6 7427.29395 121681.50781
113075.0 8.84e-6 7419.14453 110269.12500
100092.0 9.99e-6 7411.02686 97024.62500
86146.0 0.0000116 7402.94385 83267.73438
72541.0 0.0000138 7394.89453 70156.17969
58184.0 0.0000172 7386.88037 58446.24219
48114.0 0.0000208 7378.90283 48482.45313
40066.0 0.0000250 7370.96387 40310.45313
33623.0 0.0000297 7363.06299 33796.81250
28248.0 0.0000354 7355.20166 28717.53906
24151.0 0.0000414 7347.38184 24817.06836
21091.0 0.0000474 7339.60400 21845.85156
18611.0 0.0000537 7331.86865 19582.50000
16718.0 0.0000598 7324.17725 17844.12695
15498.0 0.0000645 7316.53027 16488.17773
14223.0 0.0000703 7308.93018 15408.70898
13124.0 0.0000762 7301.37646 14529.93164
12286.0 0.0000814 7293.86963 13799.05176
11789.0 0.0000848 7286.41211 13179.78320
11305.0 0.0000885 7279.00439 12647.13281
10866.0 0.0000920 7271.64648 12183.59473
10436.0 0.0000958 7264.33936 11776.54297
10346.0 0.0000967 7257.08496 11416.54688
9998.0 0.0001000 7249.88330 11096.31641
9739.0 0.0001027 7242.73584 10810.04102
9405.0 0.0001063 7235.64258 10552.99805
9145.0 0.0001093 7228.60449 10321.27539
9170.0 0.0001091 7221.62256 10111.60840
8914.0 0.0001122 7214.69775 9921.24023
8801.0 0.0001136 7207.83008 9747.83105
8496.0 0.0001177 7201.02051 9589.38477
8617.0 0.0001160 7194.26953 9444.19141
8437.0 0.0001185 7187.57910 9310.77539
8286.0 0.0001207 7180.94824 9187.86523
8200.0 0.0001220 7174.37793 9074.34766
8250.0 0.0001212 7167.86914 8969.26270
8198.0 0.0001220 7161.42334 8871.76660
8035.0 0.0001245 7155.03955 8781.11914
7994.0 0.0001251 7148.71826 8696.66895
7788.0 0.0001284 7142.46143 8617.84082
8038.0 0.0001244 7136.26904 8544.12500
7836.0 0.0001276 7130.14063 8475.06934
7783.0 0.0001285 7124.07715 8410.27148
7843.0 0.0001275 7118.07959 8349.37012
7472.0 0.0001338 7112.14844 8292.04688
7636.0 0.0001310 7106.28369 8238.00977
7539.0 0.0001326 7100.48486 8187.00049
7606.0 0.0001315 7094.75391 8138.78662
7492.0 0.0001335 7089.09033 8093.15674
7623.0 0.0001312 7083.49512 8049.91992
7490.0 0.0001335 7077.96729 8008.90283
7438.0 0.0001344 7072.50830 7969.94971
7616.0 0.0001313 7067.11816 7932.91602
7479.0 0.0001337 7061.79688 7897.67480
7545.0 0.0001325 7056.54541 7864.10498
7464.0 0.0001340 7051.36230 7832.09814
7394.0 0.0001352 7046.24951 7801.55762
7538.0 0.0001327 7041.20654 7772.39014
7442.0 0.0001344 7036.23291 7744.51172
7395.0 0.0001352 7031.33008 7717.84863
7154.0 0.0001398 7026.49658 7692.33008
7320.0 0.0001366 7021.73389 7667.88818
7386.0 0.0001354 7017.04150 7644.46436
7334.0 0.0001364 7012.41895 7622.00488
7517.0 0.0001330 7007.86719 7600.45801
7310.0 0.0001368 7003.38574 7579.77686
7302.0 0.0001369 6998.97510 7559.91602
7370.0 0.0001357 6994.63379 7540.83740
7170.0 0.0001395 6990.36377 7522.50244
7410.0 0.0001350 6986.16357 7504.87695
7427.0 0.0001346 6982.03320 7487.92822
7363.0 0.0001358 6977.97363 7471.62744
7444.0 0.0001343 6973.98291 7455.94531
7270.0 0.0001376 6970.06250 7440.85840
7277.0 0.0001374 6966.21191 7426.34131
7262.0 0.0001377 6962.43018 7412.37158
7217.0 0.0001386 6958.71777 7398.93115
7422.0 0.0001347 6955.07422 7385.99902
7376.0 0.0001356 6951.49951 7373.56006
7381.0 0.0001355 6947.99316 7361.59521
7151.0 0.0001398 6944.55518 7350.09229
7343.0 0.0001362 6941.18457 7339.03662
7179.0 0.0001393 6937.88184 7328.41650
7233.0 0.0001383 6934.64648 7318.22119
7361.0 0.0001359 6931.47705 7308.44043
7238.0 0.0001382 6928.37500 7299.06396
7336.0 0.0001363 6925.33887 7290.08691
7355.0 0.0001360 6922.36816 7281.50000
7246.0 0.0001380 6919.46289 7273.29932
7346.0 0.0001361 6916.62207 7265.25684
7264.0 0.0001377 6913.84570 7257.81738
7288.0 0.0001372 6911.13379 7250.75342
7287.0 0.0001372 6908.48438 6961.98584
7285.0 0.0001373 6905.89795 6961.55371
7310.0 0.0001368 6903.37451 6961.31641
7307.0 0.0001369 6900.91260 6961.28223
7223.0 0.0001384 6898.51123 6961.46436
7442.0 0.0001344 6896.17139 6961.87500
7306.0 0.0001369 6893.89111 6962.52734
7226.0 0.0001384 6891.67090 6963.43994
7539.0 0.0001326 6889.50879 6964.62793
7575.0 0.0001320 6887.40576 6966.11475
7308.0 0.0001368 6885.35986 6967.91943
7321.0 0.0001366 6883.37109 6970.07275
7441.0 0.0001344 6881.43799 6972.60254
7264.0 0.0001377 6879.56104 6975.54395
7264.0 0.0001377 6877.73877 6978.93652
7322.0 0.0001366 6875.97021 6982.82715
7317.0 0.0001367 6874.25586 6987.27051
7410.0 0.0001350 6872.59424 6992.32764
7493.0 0.0001335 6870.98438 6998.07178
7309.0 0.0001368 6869.42529 7004.58789
7472.0 0.0001338 6867.91699 7011.97217
7289.0 0.0001372 6866.45801 7020.33643
7277.0 0.0001374 6865.04785 7029.81055
7523.0 0.0001329 6863.68604 7040.54297
7426.0 0.0001347 6862.37109 7052.69922
7342.0 0.0001362 6861.10254 7066.46973
7519.0 0.0001330 6859.87988 7082.06543
7567.0 0.0001322 6858.70117 7099.71924
7592.0 0.0001317 6857.56689 7119.68604
7439.0 0.0001344 6856.47510 7142.24365
7474.0 0.0001338 6855.42529 7167.68164
7522.0 0.0001329 6854.41699 7196.29883
7511.0 0.0001331 6853.44824 7228.39014
7695.0 0.0001300 6852.51953 7264.23096
7791.0 0.0001284 6851.62891 7304.04541
7786.0 0.0001284 6850.77637 7347.97900
7738.0 0.0001292 6849.95947 7396.04736
7920.0 0.0001263 6849.17871 7448.08936
7948.0 0.0001258 6848.43213 7503.71289
8105.0 0.0001234 6847.72021 7562.27246
8334.0 0.0001200 6847.04004 7622.86377
8354.0 0.0001197 6846.39160 7684.37402
8335.0 0.0001200 6845.77441 7745.57520
8407.0 0.0001189 6845.18750 7805.20850
8676.0 0.0001153 6844.62842 7862.03906
8586.0 0.0001165 6844.09766 7914.82617
8795.0 0.0001137 6843.59375 7962.24121
9026.0 0.0001108 6843.11523 8002.77344
8956.0 0.0001117 6842.66211 8034.72607
9062.0 0.0001104 6842.23242 8056.33008
9025.0 0.0001108 6841.82617 8065.97900
9244.0 0.0001082 6841.44092 8062.52881
9085.0 0.0001101 6841.07666 8045.54883
8879.0 0.0001126 6840.73193 8015.44189
8956.0 0.0001117 6840.40674 7973.41309
8645.0 0.0001157 6840.09814 7921.31641
8813.0 0.0001135 6839.80664 7861.43652
8487.0 0.0001178 6839.53076 7796.26270
8189.0 0.0001221 6839.26904 7728.24951
8144.0 0.0001228 6839.02148 7659.62744
8088.0 0.0001236 6838.78613 7592.25830
8156.0 0.0001226 6838.56250 7527.56885
7617.0 0.0001313 6838.34863 7466.54639
7529.0 0.0001328 6838.14453 7409.79150
7638.0 0.0001309 6837.94873 7357.58545
7427.0 0.0001346 6837.76025 7309.97803
7463.0 0.0001340 6837.57764 7266.85352
7490.0 0.0001335 6837.40088 7227.98828
7127.0 0.0001403 6837.22754 7193.09424
7196.0 0.0001390 6837.05811 7161.85303
7101.0 0.0001408 6836.89014 7133.93311
7226.0 0.0001384 6836.72314 7109.00928
7029.0 0.0001423 6836.55615 7086.76807
7029.0 0.0001423 6836.38818 7066.91260
7112.0 0.0001406 6836.21875 7049.17188
7021.0 0.0001424 6836.04541 7033.29492
7027.0 0.0001423 6835.86865 7019.05908
6949.0 0.0001439 6835.68604 7006.26172
7072.0 0.0001414 6835.49805 6994.72510
6939.0 0.0001441 6835.30225 6984.29150
6825.0 0.0001465 6835.09912 6974.82422
6926.0 0.0001444 6834.88574 6966.20166
6878.0 0.0001454 6834.66309 6958.32178
6802.0 0.0001470 6834.42871 6951.09326
6876.0 0.0001454 6834.18213 6944.43945
6731.0 0.0001486 6833.92285 6938.29199
6674.0 0.0001498 6833.64941 6932.59473
6796.0 0.0001471 6833.36035 6927.29590
6743.0 0.0001483 6833.05518 6922.35254
6645.0 0.0001505 6832.73340 6917.72754
6711.0 0.0001490 6832.39355 6913.38672
6700.0 0.0001493 6832.03467 6909.30029
6709.0 0.0001491 6831.65576 6905.44336
6749.0 0.0001482 6831.25635 6901.79443
6666.0 0.0001500 6830.83496 6898.33105
6563.0 0.0001524 6830.39111 6895.03467
6653.0 0.0001503 6829.92334 6891.89063
6567.0 0.0001523 6829.43164 6888.88281
6654.0 0.0001503 6828.91406 6885.99805
6675.0 0.0001498 6828.37012 6887.78564
6712.0 0.0001490 6827.79932 6885.17676
6556.0 0.0001525 6827.20020 6882.66016
6563.0 0.0001524 6826.57227 6880.22412
6618.0 0.0001511 6825.91455 6877.86133
6690.0 0.0001495 6825.22607 6877.84961
6643.0 0.0001505 6824.50635 6875.64307
6749.0 0.0001482 6823.75439 6873.48877
6726.0 0.0001487 6822.96924 6871.37842
6605.0 0.0001514 6822.15039 6869.31055
6721.0 0.0001488 6821.29639 6867.27588
6635.0 0.0001507 6820.40723 6865.27148
6783.0 0.0001474 6819.48145 6863.29199
6754.0 0.0001481 6818.51904 6861.33301
6935.0 0.0001442 6817.51855 6859.38965
6963.0 0.0001436 6816.47949 6857.46143
6823.0 0.0001466 6815.40137 6855.54199
6933.0 0.0001442 6814.28271 6853.62842
6965.0 0.0001436 6813.12402 6851.71875
6914.0 0.0001446 6811.92334 6849.80908
7097.0 0.0001409 6810.68115 6847.89648
7198.0 0.0001389 6809.39551 6845.97900
7161.0 0.0001396 6808.06641 6844.05420
7253.0 0.0001379 6806.69336 6842.11963
7313.0 0.0001367 6805.27588 6840.17432
7360.0 0.0001359 6803.81250 6838.21387
7387.0 0.0001354 6802.30322 6836.23926
7482.0 0.0001337 6800.74707 6834.24561
7429.0 0.0001346 6799.14404 6832.23438
7338.0 0.0001363 6797.49316 6830.20068
7741.0 0.0001292 6795.79346 6828.14551
7483.0 0.0001336 6794.04541 6826.06689
7559.0 0.0001323 6792.24707 6823.96436
7572.0 0.0001321 6790.39941 6821.83447
7441.0 0.0001344 6788.50098 6819.67773
7492.0 0.0001335 6786.55176 6817.49316
7372.0 0.0001356 6784.55078 6815.27832
7353.0 0.0001360 6782.49756 6813.03369
7181.0 0.0001393 6780.39209 6810.75781
7229.0 0.0001383 6778.23340 6808.44922
7109.0 0.0001407 6776.02148 6806.10889
6945.0 0.0001440 6773.75586 6803.73438
6987.0 0.0001431 6771.43555 6801.32617
7093.0 0.0001410 6769.06152 6798.88281
6794.0 0.0001472 6766.63135 6796.40381
6651.0 0.0001504 6764.14648 6793.88965
6655.0 0.0001503 6761.60547 6791.33887
6747.0 0.0001482 6759.00830 6788.75146
6682.0 0.0001497 6756.35498 6786.12793
6523.0 0.0001533 6753.64453 6783.46777
6558.0 0.0001525 6750.87695 6780.76904
6600.0 0.0001515 6748.05273 6778.03418
6463.0 0.0001547 6745.17090 6775.29053
6422.0 0.0001557 6742.23047 6772.47949
6459.0 0.0001548 6739.23193 6769.63330
6498.0 0.0001539 6736.17529 6766.74902
6384.0 0.0001566 6733.06006 6763.82764
6326.0 0.0001581 6729.88525 6760.88330
6546.0 0.0001528 6726.65186 6757.88818
6371.0 0.0001570 6723.35986 6754.85791
6325.0 0.0001581 6720.00879 6751.79248
6317.0 0.0001583 6716.59717 6748.69141
6398.0 0.0001563 6713.12598 6745.55420
6385.0 0.0001566 6709.59570 6742.38428
6382.0 0.0001567 6706.00488 6739.18164
6439.0 0.0001553 6702.35449 6735.94629
6343.0 0.0001577 6698.64355 6732.68018
6263.0 0.0001597 6694.87256 6729.38281
6202.0 0.0001612 6691.04248 6726.05762
6386.0 0.0001566 6687.15088 6722.70508
6292.0 0.0001589 6683.19922 6719.32471
6253.0 0.0001599 6679.18750 6715.92188
6260.0 0.0001597 6675.11572 6712.49365
6256.0 0.0001598 6670.98291 6709.04492
6311.0 0.0001585 6666.79053 6705.57666
6443.0 0.0001552 6662.53711 6702.09277
6257.0 0.0001598 6658.22510 6698.59473
6204.0 0.0001612 6653.85205 6695.08350
6250.0 0.0001600 6649.41895 6691.56299
6154.0 0.0001625 6644.92578 6688.03711
6267.0 0.0001596 6640.37305 6684.50781
6234.0 0.0001604 6635.76025 6680.97998
6164.0 0.0001622 6631.08838 6677.45605
6092.0 0.0001641 6626.35645 6673.94189
6095.0 0.0001641 6621.56592 6670.44141
6190.0 0.0001616 6616.71680 6666.95996
6214.0 0.0001609 6611.80811 6663.50293
6179.0 0.0001618 6606.84033 6660.07520
6261.0 0.0001597 6601.81396 6656.68506
6167.0 0.0001622 6596.72998 6653.33984
6189.0 0.0001616 6591.58740 6650.04688
6278.0 0.0001593 6586.38721 6646.81445
6254.0 0.0001599 6581.12891 6643.65137
6249.0 0.0001600 6575.81494 6640.57227
6205.0 0.0001612 6570.44287 6637.58398
6114.0 0.0001636 6565.01416 6634.70215
6104.0 0.0001638 6559.52881 6631.93994
6113.0 0.0001636 6553.98730 6629.31396
6217.0 0.0001608 6548.39014 6626.84082
6137.0 0.0001629 6542.73779 6625.55664
6502.0 0.0001538 6537.02979 6623.46387
6161.0 0.0001623 6531.26855 6621.59131
6182.0 0.0001618 6525.45166 6619.96436
6326.0 0.0001581 6519.58105 6618.61523
6239.0 0.0001603 6513.65625 6618.08594
6275.0 0.0001594 6507.67871 6617.40869
6385.0 0.0001566 6501.64844 6617.13037
6277.0 0.0001593 6495.56592 6617.30273
6339.0 0.0001578 6489.43164 6672.17725
6494.0 0.0001540 6483.24512 6673.77295
6441.0 0.0001553 6477.00977 6676.97363
6592.0 0.0001517 6470.72168 6680.98291
6495.0 0.0001540 6464.38428 6712.50391
6709.0 0.0001491 6457.99707 6718.68164
6603.0 0.0001514 6451.56104 6726.59717
6556.0 0.0001525 6445.07617 6736.03662
6678.0 0.0001497 6438.54297 6747.28467
6674.0 0.0001498 6431.96289 6758.26855
6750.0 0.0001481 6425.33643 6774.32275
6910.0 0.0001447 6418.66211 6793.51904
6870.0 0.0001456 6411.94238 6816.51514
7177.0 0.0001393 6405.17725 6842.87744
7142.0 0.0001400 6398.36719 6875.95068
7046.0 0.0001419 6391.51270 6915.55615
7219.0 0.0001385 6384.61475 6962.85693
7116.0 0.0001405 6377.67383 7019.12451
7368.0 0.0001357 6370.69141 7085.69531
7439.0 0.0001344 6363.66602 7163.91553
7676.0 0.0001303 6356.59912 7255.06299
7849.0 0.0001274 6349.49219 7360.23682
7940.0 0.0001259 6342.34473 7480.17334
8239.0 0.0001214 6335.15771 7615.00049
8330.0 0.0001200 6327.93262 7763.87061
8633.0 0.0001158 6320.66846 7924.45068
8709.0 0.0001148 6313.36816 8092.32813
9005.0 0.0001110 6306.03125 8260.49121
9215.0 0.0001085 6298.65723 8419.23242
9436.0 0.0001060 6291.24805 8556.95313
9706.0 0.0001030 6283.80371 8662.08398
9664.0 0.0001035 6276.32520 8725.64063
9533.0 0.0001049 6268.81396 8743.19238
9667.0 0.0001034 6261.26904 8715.19043
9573.0 0.0001045 6253.69287 8645.78027
9214.0 0.0001085 6246.08594 8541.29102
8915.0 0.0001122 6238.44775 8409.31543
8797.0 0.0001137 6230.77930 8258.31836
8533.0 0.0001172 6223.08154 8097.05762
8283.0 0.0001207 6215.35596 7933.71631
8313.0 0.0001203 6207.60156 7775.05713
7961.0 0.0001256 6199.82080 7626.00098
7692.0 0.0001300 6192.01367 7489.65186
7629.0 0.0001311 6184.18262 7367.59375
7502.0 0.0001333 6176.32471 7260.27051
7469.0 0.0001339 6168.44336 7167.35791
7188.0 0.0001391 6160.53809 7088.04395
7049.0 0.0001419 6152.61084 7021.25635
7050.0 0.0001418 6144.66113 6965.79932
7096.0 0.0001409 6136.69092 6920.46484
6921.0 0.0001445 6128.69971 6884.10645
6975.0 0.0001434 6120.68896 6855.67236
6837.0 0.0001463 6112.66113 6834.24023
6880.0 0.0001453 6104.61426 6819.02637
6750.0 0.0001481 6096.54932 6809.39502
6777.0 0.0001476 6088.46777 6804.85400
6599.0 0.0001515 6080.37109 6805.04639
6708.0 0.0001491 6072.25879 6809.74121
6862.0 0.0001457 6064.13281 6818.82715
6837.0 0.0001463 6055.99268 6832.29883
6896.0 0.0001450 6047.84180 6850.26123
6995.0 0.0001430 6039.67725 6872.90967
6970.0 0.0001435 6031.50195 6900.55029
6982.0 0.0001432 6023.31543 6933.59180
7111.0 0.0001406 6015.12012 6972.56348
7158.0 0.0001397 6006.91553 7018.13574
7365.0 0.0001358 5998.70264 7071.15186
7384.0 0.0001354 5990.48291 7132.68457
7434.0 0.0001345 5982.25781 7204.11572
7633.0 0.0001310 5974.02539 7287.27197
7882.0 0.0001269 5965.78809 7384.63184
7926.0 0.0001262 5957.54639 7499.61621
8133.0 0.0001230 5949.30127 7637.01807
8199.0 0.0001220 5941.05371 7803.56348
8355.0 0.0001197 5932.80371 8008.60840
8691.0 0.0001151 5924.55273 8264.92871
9247.0 0.0001081 5916.30127 8589.47949
9604.0 0.0001041 5908.05176 9003.97070
10097.0 0.0000990 5899.80127 9534.99414
10603.0 0.0000943 5891.55322 10213.47461
11555.0 0.0000865 5883.30713 11073.16992
12099.0 0.0000827 5875.06445 12148.09766
13328.0 0.0000750 5866.82617 13468.74512
14660.0 0.0000682 5858.59277 15056.99316
16045.0 0.0000623 5850.36475 16919.37500
18066.0 0.0000554 5842.14404 19037.71484
20473.0 0.0000488 5833.92920 21355.94336
22866.0 0.0000437 5825.72217 23763.43945
25494.0 0.0000392 5817.52344 26081.92383
28351.0 0.0000353 5809.33350 28074.81641
30124.0 0.0000332 5801.15430 29500.67578
31829.0 0.0000314 5792.98486 30200.00391
31966.0 0.0000313 5784.82764 30151.53516
31336.0 0.0000319 5776.68311 29443.68164
30101.0 0.0000332 5768.55029 28196.49805
28261.0 0.0000354 5760.43018 26517.39258
25936.0 0.0000386 5752.32422 24515.01367
23427.0 0.0000427 5744.23389 22323.37500
20383.0 0.0000491 5736.15820 20092.41406
18371.0 0.0000544 5728.09912 17955.29102
16261.0 0.0000615 5720.05664 16004.66797
14514.0 0.0000689 5712.03223 14289.59180
12789.0 0.0000782 5704.02637 12824.68555
11409.0 0.0000877 5696.03857 11601.73926
10576.0 0.0000946 5688.06982 10599.18750
9691.0 0.0001032 5680.12158 9788.79395
8926.0 0.0001120 5672.19385 9140.18164
8397.0 0.0001191 5664.28760 8623.82520
8090.0 0.0001236 5656.40332 8212.91504
7592.0 0.0001317 5648.54150 7884.35840
7434.0 0.0001345 5640.70459 7619.13184
7230.0 0.0001383 5632.89014 7402.13818
6937.0 0.0001442 5625.09961 7221.77734
6927.0 0.0001444 5617.33447 7069.36914
6665.0 0.0001500 5609.59521 6938.53418
6570.0 0.0001522 5601.88184 6824.63428
6470.0 0.0001546 5594.19531 6724.29932
6214.0 0.0001609 5586.53613 6635.05957
6251.0 0.0001600 5578.90674 6555.07471
6179.0 0.0001618 5571.30371 6482.93896
6173.0 0.0001620 5563.72998 6417.55078
6165.0 0.0001622 5556.18604 6358.02832
6008.0 0.0001664 5548.67188 6303.65088
6088.0 0.0001643 5541.18848 6253.81787
5928.0 0.0001687 5533.73633 6208.02588
5844.0 0.0001711 5526.31592 6165.85010
5745.0 0.0001741 5518.92725 6126.92529
5822.0 0.0001718 5511.57324 6090.94824
5848.0 0.0001710 5504.25049 6057.65576
5794.0 0.0001726 5496.96191 6026.83105
5696.0 0.0001756 5489.70752 5998.29004
5491.0 0.0001821 5482.48730 5971.88525
5802.0 0.0001724 5475.30225 5947.49609
5816.0 0.0001719 5468.15332 5925.03467
5791.0 0.0001727 5461.03955 5904.43262
5640.0 0.0001773 5453.96387 5885.65576
5745.0 0.0001741 5446.92334 5868.68408
5721.0 0.0001748 5439.92041 5853.52734
5575.0 0.0001794 5432.95508 5840.21436
5693.0 0.0001757 5426.02783 5828.79102
5511.0 0.0001815 5419.13916 5822.47070
5651.0 0.0001770 5412.28906 5815.11279
5647.0 0.0001771 5405.47852 5809.88867
5666.0 0.0001765 5398.70801 5806.89209
5745.0 0.0001741 5391.97705 5806.21924
5677.0 0.0001761 5385.28613 5809.52197
5498.0 0.0001819 5378.63623 5813.76611
5591.0 0.0001789 5372.02686 5820.49902
5672.0 0.0001763 5365.45898 5829.66748
5540.0 0.0001805 5358.93262 5841.10742
5573.0 0.0001794 5352.44873 5854.50488
5648.0 0.0001771 5346.00684 5869.33643
5790.0 0.0001727 5339.60840 5884.83789
5718.0 0.0001749 5333.25195 5899.96729
5767.0 0.0001734 5326.93848 5913.45215
5699.0 0.0001755 5320.66846 5923.88867
5697.0 0.0001755 5314.44189 5929.92041
5630.0 0.0001776 5308.25977 5930.43945
5650.0 0.0001770 5302.12158 5924.76172
5719.0 0.0001749 5296.02783 5912.70166
5689.0 0.0001758 5289.97949 5894.53076
5660.0 0.0001767 5283.97510 5870.87646
5591.0 0.0001789 5278.01563 5842.61182
5631.0 0.0001776 5272.10205 5810.76709
5627.0 0.0001777 5266.23291 5776.44336
5566.0 0.0001797 5260.41016 5740.73535
5346.0 0.0001871 5254.63281 5704.65527
5573.0 0.0001794 5248.90137 5669.05615
5431.0 0.0001841 5243.21729 5634.60156
5448.0 0.0001836 5237.57813 5597.18506
5357.0 0.0001867 5231.98584 5566.29883
5492.0 0.0001821 5226.43994 5537.45020
5539.0 0.0001805 5220.94092 5510.67480
5450.0 0.0001835 5215.48828 5483.61816
5426.0 0.0001843 5210.08301 5460.85205
5485.0 0.0001823 5204.72461 5439.90674
5407.0 0.0001849 5199.41309 5420.64648
5321.0 0.0001879 5194.14990 5402.92578
5390.0 0.0001855 5188.93311 5386.60107
5293.0 0.0001889 5183.76318 5371.53369
5421.0 0.0001845 5178.64111 5357.59326
5312.0 0.0001883 5173.56592 5344.65820
5286.0 0.0001892 5168.53809 5332.62061
5439.0 0.0001839 5163.55859 5321.37988
5366.0 0.0001864 5158.62598 5310.85205
5311.0 0.0001883 5153.74170 5300.96045
5427.0 0.0001843 5148.90430 5291.63770
5463.0 0.0001830 5144.11475 5282.83154
5285.0 0.0001892 5139.37207 5274.49268
5160.0 0.0001938 5134.67725 5266.58496
5329.0 0.0001877 5130.02979 5259.07373
5235.0 0.0001910 5125.43018 5251.93457
5229.0 0.0001912 5120.87744 5245.14697
5282.0 0.0001893 5116.37305 5238.69678
5304.0 0.0001885 5111.91504 5232.56982
5349.0 0.0001870 5107.50488 5226.76025
5363.0 0.0001865 5103.14111 5221.26318
5186.0 0.0001928 5098.82471 5216.08008
5388.0 0.0001856 5094.55566 5211.21387
5277.0 0.0001895 5090.33301 5206.66748
5366.0 0.0001864 5086.15771 5202.45557
5248.0 0.0001905 5082.02881 5198.58887
5279.0 0.0001894 5077.94727 5195.08789
5439.0 0.0001839 5073.91162 5191.97314
5379.0 0.0001859 5069.92236 5208.42334
5280.0 0.0001894 5065.97900 5206.52246
5258.0 0.0001902 5062.08203 5205.13330
5364.0 0.0001864 5058.23047 5204.31494
5441.0 0.0001838 5054.42529 5204.14990
5416.0 0.0001846 5050.66553 5214.23145
5239.0 0.0001909 5046.95215 5215.90234
5314.0 0.0001882 5043.28271 5218.68848
5449.0 0.0001835 5039.65820 5222.87402
5401.0 0.0001852 5036.07910 5228.85107
5367.0 0.0001863 5032.54443 5237.15186
5398.0 0.0001853 5029.05469 5248.48633
5653.0 0.0001769 5025.60889 5263.77051
5535.0 0.0001807 5022.20752 5284.14160
5521.0 0.0001811 5018.85010 5310.95166
5547.0 0.0001803 5015.53564 5345.72900
5670.0 0.0001764 5012.26465 5390.09131
5626.0 0.0001777 5009.03711 5445.61621
5832.0 0.0001715 5005.85254 5513.66211
5748.0 0.0001740 5002.70996 5595.12939
5858.0 0.0001707 4999.61035 5690.15430
5895.0 0.0001696 4996.55273 5797.68359
5892.0 0.0001697 4993.53662 5914.89063
6011.0 0.0001664 4990.56299 6036.46045
6208.0 0.0001611 4987.63037 6154.02637
6235.0 0.0001604 4984.73828 6256.55469
6389.0 0.0001565 4981.88721 6332.54590
6298.0 0.0001588 4979.07666 6373.79004
6261.0 0.0001597 4976.30615 6378.24170
6286.0 0.0001591 4973.57520 6349.42529
6367.0 0.0001571 4970.88428 6293.06934
6183.0 0.0001617 4968.23291 6214.34375
6131.0 0.0001631 4965.62012 6117.77344
5866.0 0.0001705 4963.04590 6008.63184
5977.0 0.0001673 4960.50977 5893.47900
5769.0 0.0001733 4958.01172 5779.13037
5857.0 0.0001707 4955.55127 5671.20605
5749.0 0.0001739 4953.12793 5573.39209
5526.0 0.0001810 4950.74170 5487.50488
5643.0 0.0001772 4948.39209 5413.95508
5593.0 0.0001788 4946.07861 5352.22412
5461.0 0.0001831 4943.80127 5301.25293
5300.0 0.0001887 4941.55908 5259.70898
5436.0 0.0001840 4939.35205 5226.17725
5275.0 0.0001896 4937.18018 5199.27881
5230.0 0.0001912 4935.04297 5177.75684
5214.0 0.0001918 4932.93945 5160.51563
5245.0 0.0001907 4930.86963 5146.64209
5158.0 0.0001939 4928.83350 5135.40088
5150.0 0.0001942 4926.83008 5126.21973
5196.0 0.0001925 4924.85889 5118.66260
5312.0 0.0001883 4922.91992 5112.40430
5266.0 0.0001899 4921.01318 5107.21094
5082.0 0.0001968 4919.13770 5102.91016
5242.0 0.0001908 4917.29297 5099.37695
5097.0 0.0001962 4915.47900 5096.52246
5192.0 0.0001926 4913.69580 5094.28174
5130.0 0.0001949 4911.94189 5092.60352
5036.0 0.0001986 4910.21777 5091.45459
5103.0 0.0001960 4908.52197 5090.80859
5215.0 0.0001918 4906.85547 5090.64746
5059.0 0.0001977 4905.21680 5090.95947
5080.0 0.0001969 4903.60596 5091.73730
5095.0 0.0001963 4902.02295 5092.97998
5197.0 0.0001924 4900.46680 5094.68945
5143.0 0.0001944 4898.93701 5096.87256
4972.0 0.0002011 4897.43359 5099.54248
5119.0 0.0001954 4895.95557 5102.71387
5079.0 0.0001969 4894.50293 5106.40381
5047.0 0.0001981 4893.07520 5110.63916
5084.0 0.0001967 4891.67236 5115.44678
5043.0 0.0001983 4890.29297 5120.86035
5045.0 0.0001982 4888.93799 5126.91943
5136.0 0.0001947 4887.60596 5133.66992
5153.0 0.0001941 4886.29639 5141.16016
5040.0 0.0001984 4885.00977 5156.47070
5173.0 0.0001933 4883.74463 5165.75488
5093.0 0.0001963 4882.50146 5175.98535
5043.0 0.0001983 4881.27930 5187.25146
5131.0 0.0001949 4880.07764 5199.64941
5153.0 0.0001941 4878.89648 5216.76367
5229.0 0.0001912 4877.73535 5231.85205
5242.0 0.0001908 4876.59326 5248.47266
5259.0 0.0001902 4875.47070 5266.80225
5263.0 0.0001900 4874.36621 5287.04834
5308.0 0.0001884 4873.27979 5309.45605
5433.0 0.0001841 4872.21191 5334.32031
5339.0 0.0001873 4871.16064 5362.00684
5378.0 0.0001859 4870.12646 5392.96582
5485.0 0.0001823 4869.10938 5427.76953
5469.0 0.0001828 4868.10791 5467.15186
5580.0 0.0001792 4867.12207 5512.06787
5649.0 0.0001770 4866.15137 5563.75439
5751.0 0.0001739 4865.19580 5623.82373
5774.0 0.0001732 4864.25439 5694.35107
5963.0 0.0001677 4863.32715 5777.97900
5895.0 0.0001696 4862.41357 5878.00732
6093.0 0.0001641 4861.51318 5998.46533
6232.0 0.0001605 4860.62549 6144.14502
6459.0 0.0001548 4859.75049 6320.56250
6529.0 0.0001532 4858.88672 6533.85156
6904.0 0.0001448 4858.03516 6790.53711
7064.0 0.0001416 4857.19434 7097.21289
7381.0 0.0001355 4856.36475 7460.06982
7867.0 0.0001271 4855.54541 7884.27686
8224.0 0.0001216 4854.73584 8373.14160
8775.0 0.0001140 4853.93604 8926.94629
9449.0 0.0001058 4853.14551 9541.31738
9804.0 0.0001020 4852.36377 10204.95898
10616.0 0.0000942 4851.59033 10896.90918
11173.0 0.0000895 4850.82471 11584.16113
11659.0 0.0000858 4850.06738 12221.62012
12199.0 0.0000820 4849.31689 12757.16406
12719.0 0.0000786 4848.57275 13142.76172
13070.0 0.0000765 4847.83594 13347.77637
12923.0 0.0000774 4847.10498 13366.23926
12904.0 0.0000775 4846.37988 13212.85352
12351.0 0.0000810 4845.66016 12911.80371
12048.0 0.0000830 4844.94580 12486.86328
11900.0 0.0000840 4844.23584 11964.22754
11244.0 0.0000889 4843.53027 11369.56543
10802.0 0.0000926 4842.82861 10733.65234
10287.0 0.0000972 4842.13086 10088.43359
9775.0 0.0001023 4841.43604 9445.32910
9441.0 0.0001059 4840.74414 8859.16797
8836.0 0.0001132 4840.05518 8325.97754
8342.0 0.0001199 4839.36816 7851.89014
8110.0 0.0001233 4838.68311 7437.92480
7707.0 0.0001298 4837.99951 7081.69580
7599.0 0.0001316 4837.31738 6778.74609
7414.0 0.0001349 4836.63623 6523.51025
7026.0 0.0001423 4835.95605 6391.47070
6861.0 0.0001458 4835.27588 6215.49365
6469.0 0.0001546 4834.59521 6069.66211
6488.0 0.0001541 4833.91455 5948.85645
6336.0 0.0001578 4833.23340 5848.58203
6096.0 0.0001640 4832.55127 5765.00391
5949.0 0.0001681 4831.86768 5735.91064
5936.0 0.0001685 4831.18262 5677.66504
5984.0 0.0001671 4830.49609 5628.28223
5872.0 0.0001703 4829.80713 5586.12744
5773.0 0.0001732 4829.11621 5549.92676
5731.0 0.0001745 4828.42236 5518.69531
5575.0 0.0001794 4827.72510 5491.66992
5638.0 0.0001774 4827.02490 5468.26074
5590.0 0.0001789 4826.32129 5448.00732
5563.0 0.0001798 4825.61426 5430.54834
5458.0 0.0001832 4824.90283 5415.59766
5404.0 0.0001850 4824.18701 5402.92529
5540.0 0.0001805 4823.46729 5392.34668
5574.0 0.0001794 4822.74219 5383.71191
5452.0 0.0001834 4822.01221 5376.90381
5365.0 0.0001864 4821.27734 5371.82910
5447.0 0.0001836 4820.53662 5368.41357
5383.0 0.0001858 4819.79053 5366.60889
5447.0 0.0001836 4819.03809 5366.38086
5421.0 0.0001845 4818.27979 5367.71680
5522.0 0.0001811 4817.51514 5370.61963
5399.0 0.0001852 4816.74365 5375.83252
5365.0 0.0001864 4815.96582 5381.96924
5302.0 0.0001886 4815.18066 5389.80811
5356.0 0.0001867 4814.38818 5399.44482
5552.0 0.0001801 4813.58887 5411.01025
5449.0 0.0001835 4812.78125 5424.67871
5508.0 0.0001816 4811.96680 5441.04395
5557.0 0.0001800 4811.14355 5459.70020
5568.0 0.0001796 4810.31299 5481.41797
5537.0 0.0001806 4809.47314 5506.73926
5648.0 0.0001771 4808.62549 5536.37549
5732.0 0.0001745 4807.76953 5571.24463
5804.0 0.0001723 4806.90430 5612.51318
5688.0 0.0001758 4806.03027 5661.62695
5908.0 0.0001693 4805.14697 5720.33203
6004.0 0.0001666 4804.25488 5790.68555
6086.0 0.0001643 4803.35303 5875.01270
6140.0 0.0001629 4802.44189 5975.85254
6206.0 0.0001611 4801.52100 6095.84082
6365.0 0.0001571 4800.59033 6237.55176
6574.0 0.0001521 4799.64990 6403.28320
6635.0 0.0001507 4798.69971 6594.77441
6813.0 0.0001468 4797.73926 6812.83203
6828.0 0.0001465 4796.76855 7056.81152
7151.0 0.0001398 4795.78760 7323.89209
7268.0 0.0001376 4794.79590 7608.13525
7369.0 0.0001357 4793.79395 7899.46875
7561.0 0.0001323 4792.78174 8183.11670
7818.0 0.0001279 4791.75830 8440.45996
7918.0 0.0001263 4790.72412 8652.17871
8006.0 0.0001249 4789.67920 8803.27930
7950.0 0.0001258 4788.62354 8887.44141
8056.0 0.0001241 4787.55713 8907.62012
8272.0 0.0001209 4786.47949 8872.57227
8138.0 0.0001229 4785.39014 8792.37305
8095.0 0.0001235 4784.29053 8676.29590
8118.0 0.0001232 4783.17920 8533.65137
7949.0 0.0001258 4782.05664 8375.35840
8133.0 0.0001230 4780.92285 8214.10156
8078.0 0.0001238 4779.77783 8062.86816
8034.0 0.0001245 4778.62158 7933.19092
7983.0 0.0001253 4777.45361 7834.25684
8178.0 0.0001223 4776.27393 7773.07471
8009.0 0.0001249 4775.08301 7755.30029
8207.0 0.0001218 4773.88086 7786.27783
8266.0 0.0001210 4772.66748 7872.07617
8577.0 0.0001166 4771.44238 8020.42139
9000.0 0.0001111 4770.20557 8241.51172
9408.0 0.0001063 4768.95752 8548.63672
9667.0 0.0001034 4767.69824 8958.56055
10211.0 0.0000979 4766.42676 9491.53418
10786.0 0.0000927 4765.14453 10170.84473
11465.0 0.0000872 4763.85059 11021.78809
12369.0 0.0000808 4762.54492 12070.02930
13520.0 0.0000740 4761.22852 13339.30664
14964.0 0.0000668 4759.89990 14848.43457
16493.0 0.0000606 4758.56055 16607.48633
17846.0 0.0000560 4757.20996 18612.76953
20028.0 0.0000499 4755.84766 20840.01367
22695.0 0.0000441 4754.47461 23235.20703
25172.0 0.0000397 4753.08984 25703.90234
27669.0 0.0000361 4751.69434 28103.50000
30261.0 0.0000330 4750.28760 30248.52734
32805.0 0.0000305 4748.87012 31940.64453
34542.0 0.0000290 4747.44141 33053.66016
35644.0 0.0000281 4746.00244 33457.95703
35588.0 0.0000281 4744.55176 33216.07031
34761.0 0.0000288 4743.09082 32418.44336
33539.0 0.0000298 4741.61914 31142.71094
31483.0 0.0000318 4740.13672 29507.29102
29116.0 0.0000343 4738.64404 27582.28125
26947.0 0.0000371 4737.14063 25426.85156
24711.0 0.0000405 4735.62695 23167.21484
22288.0 0.0000449 4734.10352 20917.72461
19607.0 0.0000510 4732.56934 18765.36328
17151.0 0.0000583 4731.02490 16796.09570
15222.0 0.0000657 4729.47119 15037.15332
13532.0 0.0000739 4727.90723 13501.44629
11996.0 0.0000834 4726.33350 12185.15625
10965.0 0.0000912 4724.75000 11073.87109
10000.0 0.0001000 4723.15723 10147.17090
9224.0 0.0001084 4721.55518 9381.83887
8669.0 0.0001154 4719.94385 8754.12305
8126.0 0.0001231 4718.32324 8241.26563
7564.0 0.0001322 4716.69336 7822.49463
7025.0 0.0001423 4715.05420 7479.58545
6692.0 0.0001494 4713.40674 7197.08789
6548.0 0.0001527 4711.75049 6962.29102
6506.0 0.0001537 4710.08594 6764.99609
6210.0 0.0001610 4708.41260 6597.20996
6180.0 0.0001618 4706.73145 6452.77246
6041.0 0.0001655 4705.04199 6326.99707
5876.0 0.0001702 4703.34424 6216.33936
5818.0 0.0001719 4701.63867 6118.12256
5628.0 0.0001777 4699.92578 6030.30713
5481.0 0.0001824 4698.20508 5951.32373
5594.0 0.0001788 4696.47705 5879.93994
5466.0 0.0001829 4694.74170 5815.17041
5549.0 0.0001802 4692.99951 5756.21387
5434.0 0.0001840 4691.25049 5702.40088
5228.0 0.0001913 4689.49414 5653.17090
5485.0 0.0001823 4687.73145 5608.04346
5248.0 0.0001905 4685.96191 5566.60742
5271.0 0.0001897 4684.18652 5528.50342
5176.0 0.0001932 4682.40479 5493.41797
5173.0 0.0001933 4680.61768 5461.07764
5094.0 0.0001963 4678.82422 5431.24268
5076.0 0.0001970 4677.02539 5403.70068
5245.0 0.0001907 4675.22070 5378.26611
5085.0 0.0001967 4673.41113 5354.77393
5048.0 0.0001981 4671.59619 5333.07861
5176.0 0.0001932 4669.77637 5313.05078
5065.0 0.0001974 4667.95215 5297.16260
4987.0 0.0002005 4666.12256 5280.18945
4956.0 0.0002018 4664.28906 5264.58105
4973.0 0.0002011 4662.45215 5250.26416
5032.0 0.0001987 4660.61035 5237.16650
4987.0 0.0002005 4658.76416 5225.22998
5056.0 0.0001978 4656.91504 5215.69141
4999.0 0.0002000 4655.06201 5205.95459
4792.0 0.0002087 4653.20605 5197.24707
4973.0 0.0002011 4651.34668 5189.53955
5046.0 0.0001982 4649.48438 5182.80664
4928.0 0.0002029 4647.61963 5177.03223
5009.0 0.0001996 4645.75244 5172.20215
4856.0 0.0002059 4643.88232 5168.30957
4893.0 0.0002044 4642.01025 5165.35645
4928.0 0.0002029 4640.13574 5163.34424
4851.0 0.0002061 4638.25977 5162.28467
4915.0 0.0002035 4636.38232 5162.19434
4989.0 0.0002004 4634.50293 5163.09668
4840.0 0.0002066 4632.62305 5165.02295
4947.0 0.0002021 4630.74170 5168.00781
4888.0 0.0002046 4628.85938 5172.09912
4975.0 0.0002010 4626.97656 5177.34961
4945.0 0.0002022 4625.09326 5183.82471
5072.0 0.0001972 4623.20947 5191.60156
5036.0 0.0001986 4621.32520 5200.76660
4838.0 0.0002067 4619.44141 5211.42236
4918.0 0.0002033 4617.55811 5223.68945
4935.0 0.0002026 4615.67529 5237.70752
5067.0 0.0001974 4613.79248 5254.44482
5016.0 0.0001994 4611.91064 5272.47510
5019.0 0.0001992 4610.03027 5285.86768
5132.0 0.0001949 4608.15039 5308.87939
5140.0 0.0001946 4606.27246 5334.72510
5112.0 0.0001956 4604.39600 5363.73193
5237.0 0.0001909 4602.52100 5396.68457
5318.0 0.0001880 4600.64844 5429.72803
5310.0 0.0001883 4598.77783 5470.83301
5445.0 0.0001837 4596.90967 5517.05811
5577.0 0.0001793 4595.04346 5569.15820
5614.0 0.0001781 4593.18018 5628.04980
5692.0 0.0001757 4591.31982 5694.88086
5779.0 0.0001730 4589.46240 5688.77539
5968.0 0.0001676 4587.60791 5778.00244
6113.0 0.0001636 4585.75732 5880.74951
6167.0 0.0001622 4583.91016 6000.00684
6235.0 0.0001604 4582.06689 6139.53076
6518.0 0.0001534 4580.22705 6303.97461
6808.0 0.0001469 4578.39160 6458.30615
6985.0 0.0001432 4576.56006 6691.41260
7226.0 0.0001384 4574.73340 6969.39160
7849.0 0.0001274 4572.91113 7314.95361
8058.0 0.0001241 4571.09375 7709.28271
8711.0 0.0001148 4569.28125 8175.86035
9104.0 0.0001098 4567.47412 8724.09766
9553.0 0.0001047 4565.67188 9362.52344
10307.0 0.0000970 4563.87500 10097.73438
10986.0 0.0000910 4562.08398 10939.97852
12044.0 0.0000830 4560.29883 11873.15723
13004.0 0.0000769 4558.51904 12893.96680
14066.0 0.0000711 4556.74561 13980.70020
15147.0 0.0000660 4554.97900 15096.30859
15933.0 0.0000628 4553.21777 16185.65039
17224.0 0.0000581 4551.46338 17176.98633
18128.0 0.0000552 4549.71582 17991.34375
18628.0 0.0000537 4547.97510 18560.17383
19078.0 0.0000524 4546.24121 18844.33203
19235.0 0.0000520 4544.51465 18842.49414
19025.0 0.0000526 4542.79541 18582.71094
18022.0 0.0000555 4541.08350 18104.17578
17519.0 0.0000571 4539.37891 17443.02539
16632.0 0.0000601 4537.68213 16630.23047
15668.0 0.0000638 4535.99316 15698.19727
14580.0 0.0000686 4534.31201 14686.64551
13562.0 0.0000737 4532.63916 13641.36328
12280.0 0.0000814 4530.97412 12607.38184
11591.0 0.0000863 4529.31787 11621.96875
10486.0 0.0000954 4527.66992 10711.12500
9739.0 0.0001027 4526.03076 9894.00293
8875.0 0.0001127 4524.39990 9167.88672
8434.0 0.0001186 4522.77832 8536.29199
7758.0 0.0001289 4521.16504 7994.24463
7361.0 0.0001359 4519.56152 7534.20020
7082.0 0.0001412 4517.96680 7147.28418
6807.0 0.0001469 4516.38135 6824.16602
6420.0 0.0001558 4514.80518 6557.83105
6231.0 0.0001605 4513.23877 6335.37744
6045.0 0.0001654 4511.68164 6151.16211
5818.0 0.0001719 4510.13428 5998.38770
5605.0 0.0001784 4508.59668 5871.28955
5744.0 0.0001741 4507.06885 5765.10107
5654.0 0.0001769 4505.55127 5675.99219
5522.0 0.0001811 4504.04346 5600.96484
5440.0 0.0001838 4502.54590 5537.74658
5332.0 0.0001875 4501.05908 5484.67969
5094.0 0.0001963 4499.58203 5440.61914
5218.0 0.0001916 4498.11523 5404.85254
5431.0 0.0001841 4496.65918 5377.02344
5297.0 0.0001888 4495.21387 5357.06494
5236.0 0.0001910 4493.77881 5345.14160
5240.0 0.0001908 4492.35449 5341.59375
5168.0 0.0001935 4490.94092 5346.87549
5062.0 0.0001976 4489.53809 5361.48340
5340.0 0.0001873 4488.14697 5385.88525
5254.0 0.0001903 4486.76611 5420.42334
5424.0 0.0001844 4485.39600 5465.20313
5361.0 0.0001865 4484.03711 5519.95996
5368.0 0.0001863 4482.68945 5583.85547
5504.0 0.0001817 4481.35303 5655.24561
5558.0 0.0001799 4480.02734 5731.37207
5719.0 0.0001749 4478.71338 5808.12158
5723.0 0.0001747 4477.41064 5880.02344
5714.0 0.0001750 4476.11963 5940.78662
5948.0 0.0001681 4474.83936 5984.51074
6025.0 0.0001660 4473.57080 6007.20996
5975.0 0.0001674 4472.31348 6007.80176
5672.0 0.0001763 4471.06738 5987.85547
5790.0 0.0001727 4469.83301 5950.30322
5871.0 0.0001703 4468.61035 5898.11523
5731.0 0.0001745 4467.39941 5833.77881
5650.0 0.0001770 4466.19922 5759.64111
5556.0 0.0001800 4465.01123 5678.49023
5321.0 0.0001879 4463.83447 5593.73242
5306.0 0.0001885 4462.66943 5509.00391
5309.0 0.0001884 4461.51611 5427.58105
5352.0 0.0001868 4460.37402 5351.96680
5359.0 0.0001866 4459.24365 5283.77734
5057.0 0.0001977 4458.12500 5223.83740
5222.0 0.0001915 4457.01807 5172.37988
5047.0 0.0001981 4455.92285 5129.22412
5248.0 0.0001905 4454.83887 5093.93994
5222.0 0.0001915 4453.76660 5065.95068
5148.0 0.0001943 4452.70557 5044.62842
5141.0 0.0001945 4451.65625 5029.34473
5298.0 0.0001888 4450.61865 5019.52490
5351.0 0.0001869 4449.59229 5014.67236
5214.0 0.0001918 4448.57764 5014.40137
5377.0 0.0001860 4447.57422 5018.45166
5467.0 0.0001829 4446.58203 5026.70410
5458.0 0.0001832 4445.60156 5039.20459
5548.0 0.0001802 4444.63232 5128.21387
5625.0 0.0001778 4443.67432 5151.33105
5715.0 0.0001750 4442.72803 5179.98047
5732.0 0.0001745 4441.79248 5215.03564
5796.0 0.0001725 4440.86816 5257.63135
5954.0 0.0001680 4439.95508 5309.18896
5967.0 0.0001676 4439.05322 5407.11621
6180.0 0.0001618 4438.16211 5482.72314
6014.0 0.0001663 4437.28223 5573.38672
6350.0 0.0001575 4436.41309 5681.66504
6417.0 0.0001558 4435.55518 5810.28516
6433.0 0.0001554 4434.70752 5962.03906
6595.0 0.0001516 4433.87109 6139.62891
6665.0 0.0001500 4433.04541 6345.48486
6838.0 0.0001462 4432.22998 6581.52295
7040.0 0.0001420 4431.42529 6848.82520
7330.0 0.0001364 4430.63086 7147.20703
7410.0 0.0001350 4429.84717 7474.64014
7629.0 0.0001311 4429.07324 7826.48291
7823.0 0.0001278 4428.31006 8194.54492
8339.0 0.0001199 4427.55664 8566.22852
8435.0 0.0001186 4426.81396 8924.20801
8736.0 0.0001145 4426.08057 9247.42285
8877.0 0.0001127 4425.35742 9513.97363
9068.0 0.0001103 4424.64404 9705.60156
9060.0 0.0001104 4423.94043 9811.95703
9150.0 0.0001093 4423.24609 9832.32031
9201.0 0.0001087 4422.56201 9773.66699
9273.0 0.0001078 4421.88672 9646.56641
9024.0 0.0001108 4421.22119 9461.74219
8836.0 0.0001132 4420.56445 9229.04590
8697.0 0.0001150 4419.91699 8958.57129
8637.0 0.0001158 4419.27881 8662.01563
8512.0 0.0001175 4418.64941 8352.85156
8185.0 0.0001222 4418.02881 8045.05518
7945.0 0.0001259 4417.41650 7751.38818
7786.0 0.0001284 4416.81348 7482.15527
7473.0 0.0001338 4416.21875 7244.80615
7594.0 0.0001317 4415.63232 7044.15527
7328.0 0.0001365 4415.05371 6882.89307
7117.0 0.0001405 4414.48389 6762.10400
7012.0 0.0001426 4413.92188 6681.68262
6951.0 0.0001439 4413.36719 6640.57715
6979.0 0.0001433 4412.82080 6636.92285
7055.0 0.0001417 4412.28223 6668.01807
6900.0 0.0001449 4411.75098 6730.16992
7028.0 0.0001423 4411.22656 6818.39453
7220.0 0.0001385 4410.70996 6926.01807
7141.0 0.0001400 4410.20020 7044.30371
7418.0 0.0001348 4409.69775 7162.45361
7420.0 0.0001348 4409.20166 7268.41357
7473.0 0.0001338 4408.71289 7350.74658
7563.0 0.0001322 4408.22998 7401.29590
7620.0 0.0001312 4407.75391 7415.94580
7504.0 0.0001333 4407.28418 7395.86377
7479.0 0.0001337 4406.82080 7344.69629
7217.0 0.0001386 4406.36328 7266.65771
7257.0 0.0001378 4405.91113 7165.47705
7233.0 0.0001383 4405.46533 7044.72168
7175.0 0.0001394 4405.02490 6908.81152
6798.0 0.0001471 4404.58984 6762.97314
6703.0 0.0001492 4404.16016 6613.49756
6549.0 0.0001527 4403.73535 6466.35498
6463.0 0.0001547 4403.31592 6326.50879
6362.0 0.0001572 4402.90137 6197.56689
6274.0 0.0001594 4402.49121 6081.80811
6146.0 0.0001627 4402.08545 5980.40186
6125.0 0.0001633 4401.68457 5893.67529
5912.0 0.0001691 4401.28760 5821.35205
6023.0 0.0001660 4400.89453 5762.76611
5910.0 0.0001692 4400.50586 5717.00928
5882.0 0.0001700 4400.12061 5683.06299
5848.0 0.0001710 4399.73926 5659.89063
5699.0 0.0001755 4399.36133 5646.50146
5878.0 0.0001701 4398.98633 5642.00977
5853.0 0.0001709 4398.61475 5645.65234
5818.0 0.0001719 4398.24609 5656.81787
5843.0 0.0001711 4397.88037 5675.04492
5941.0 0.0001683 4397.51709 5700.03125
5938.0 0.0001684 4397.15674 5731.62207
5880.0 0.0001701 4396.79834 5769.09082
6210.0 0.0001610 4396.44238 5814.02539
6126.0 0.0001632 4396.08838 5865.98877
6266.0 0.0001596 4395.73633 5925.43018
6388.0 0.0001565 4395.38574 5992.98535
6583.0 0.0001519 4395.03711 6044.89307
6604.0 0.0001514 4394.68945 6129.19092
6806.0 0.0001469 4394.34326 6230.12451
7198.0 0.0001389 4393.99805 6342.17725
7204.0 0.0001388 4393.65381 6470.27051
7578.0 0.0001320 4393.31006 6617.72607
7840.0 0.0001276 4392.96680 6788.85303
8059.0 0.0001241 4392.62451 6989.20020
8458.0 0.0001182 4392.28223 7224.52051
8900.0 0.0001124 4391.93994 7507.39209
9366.0 0.0001068 4391.59766 7844.85254
9725.0 0.0001028 4391.25488 8250.89355
10382.0 0.0000963 4390.91211 8740.38184
11024.0 0.0000907 4390.56885 9330.03320
11792.0 0.0000848 4390.22461 10037.99219
12412.0 0.0000806 4389.87939 10883.12695
13119.0 0.0000762 4389.53320 11884.04785
14567.0 0.0000686 4389.18604 13057.82031
15869.0 0.0000630 4388.83740 14418.35449
16906.0 0.0000592 4388.48730 15974.37012
18619.0 0.0000537 4388.13574 17726.80664
20550.0 0.0000487 4387.78223 19665.38477
22397.0 0.0000446 4387.42627 21764.02539
24572.0 0.0000407 4387.06885 23975.14063
27018.0 0.0000370 4386.70850 26223.72070
29747.0 0.0000336 4386.34619 28404.08008
31709.0 0.0000315 4385.98096 30384.21289
33365.0 0.0000300 4385.61328 32022.92383
34916.0 0.0000286 4385.24268 33199.12891
36084.0 0.0000277 4384.86865 33842.45313
36319.0 0.0000275 4384.49170 33947.26563
35654.0 0.0000280 4384.11133 33560.62500
34755.0 0.0000288 4383.72754 32752.69336
33119.0 0.0000302 4383.33984 31590.20313
31334.0 0.0000319 4382.94824 30127.59766
29700.0 0.0000337 4382.55273 28415.47656
27401.0 0.0000365 4382.15381 26514.95898
25243.0 0.0000396 4381.75000 24497.36719
23236.0 0.0000430 4381.34180 22445.23828
20772.0 0.0000481 4380.92871 20434.71680
18726.0 0.0000534 4380.51172 18526.79688
17085.0 0.0000585 4380.08936 16763.28320
15156.0 0.0000660 4379.66211 15167.80371
13924.0 0.0000718 4379.22998 13750.04297
12702.0 0.0000787 4378.79248 12507.13770
11226.0 0.0000891 4378.34912 11431.07715
10413.0 0.0000960 4377.90088 10537.28320
9604.0 0.0001041 4377.44678 9753.64551
8935.0 0.0001119 4376.98682 9091.84668
8438.0 0.0001185 4376.52100 8535.47949
7880.0 0.0001269 4376.04883 8068.90186
7662.0 0.0001305 4375.57031 7677.73877
7192.0 0.0001390 4375.08594 7363.20703
6954.0 0.0001438 4374.59521 7086.22852
6683.0 0.0001496 4374.09766 6851.20850
6365.0 0.0001571 4373.59326 6650.26855
6342.0 0.0001577 4373.08252 6476.96875
6131.0 0.0001631 4372.56445 6326.13232
5810.0 0.0001721 4372.03906 6193.63965
5865.0 0.0001705 4371.50684 6076.25146
5525.0 0.0001810 4370.96729 5971.42090
5585.0 0.0001791 4370.42041 5877.15723
5332.0 0.0001875 4369.86572 5791.88867
5343.0 0.0001872 4369.30371 5714.36719
5457.0 0.0001833 4368.73340 5643.58984
5256.0 0.0001903 4368.15576 5578.74316
5135.0 0.0001947 4367.56982 5519.14990
5079.0 0.0001969 4366.97607 5464.24170
4991.0 0.0002004 4366.37354 5413.53711
5058.0 0.0001977 4365.76318 5366.62158
4973.0 0.0002011 4365.14453 5323.13623
4906.0 0.0002038 4364.51709 5291.10303
4947.0 0.0002021 4363.88135 5253.66357
4861.0 0.0002057 4363.23633 5218.81641
4890.0 0.0002045 4362.58301 5194.68066
4919.0 0.0002033 4361.92041 5164.48682
4806.0 0.0002081 4361.24902 5136.30371
4707.0 0.0002124 4360.56885 5109.97559
4718.0 0.0002120 4359.87939 5089.52686
4731.0 0.0002114 4359.18018 5066.57178
4691.0 0.0002132 4358.47217 5045.11035
4823.0 0.0002073 4357.75439 5029.20654
4886.0 0.0002047 4357.02734 5010.51758
4718.0 0.0002120 4356.29053 4993.07813
4774.0 0.0002095 4355.54395 4976.82813
4715.0 0.0002121 4354.78809 4961.71680
4720.0 0.0002119 4354.02197 4947.70264
4808.0 0.0002080 4353.24609 4934.75195
4660.0 0.0002146 4352.46045 4967.10645
4746.0 0.0002107 4351.66455 4956.74268
4695.0 0.0002130 4350.85840 4947.38330
4763.0 0.0002100 4350.04248 4939.01855
4707.0 0.0002124 4349.21631 4931.63477
4660.0 0.0002146 4348.37939 4925.21826
4710.0 0.0002123 4347.53271 4919.75586
4739.0 0.0002110 4346.67529 4937.28369
4772.0 0.0002096 4345.80762 4933.91748
4647.0 0.0002152 4344.92920 4931.40332
4658.0 0.0002147 4344.04004 4929.66797
4617.0 0.0002166 4343.14063 4928.61133
4743.0 0.0002108 4342.23047 4928.08398
4782.0 0.0002091 4341.30957 4927.89941
4785.0 0.0002090 4340.37793 4927.83203
4781.0 0.0002092 4339.43555 4927.63330
4726.0 0.0002116 4338.48242 4927.05664
4645.0 0.0002153 4337.51807 4925.90332
4707.0 0.0002124 4336.54297 4924.04785
4718.0 0.0002120 4335.55713 4921.45557
4776.0 0.0002094 4334.56006 4918.16650
4703.0 0.0002126 4333.55176 4914.26855
4613.0 0.0002168 4332.53271 4909.87402
4714.0 0.0002121 4331.50293 4906.96387
4609.0 0.0002170 4330.46143 4901.95508
4742.0 0.0002109 4329.40918 4896.81299
4675.0 0.0002139 4328.34570 4891.68311
4642.0 0.0002154 4327.27100 4886.71240
4640.0 0.0002155 4326.18506 4882.06152
4691.0 0.0002132 4325.08789 4877.86035
4780.0 0.0002092 4323.97949 4875.15186
4658.0 0.0002147 4322.86035 4872.18164
4695.0 0.0002130 4321.72949 4869.92480
4675.0 0.0002139 4320.58740 4868.43066
4789.0 0.0002088 4319.43457 4867.72461
4842.0 0.0002065 4318.27002 4867.83887
4867.0 0.0002055 4317.09424 4868.79590
4826.0 0.0002072 4315.90723 4870.62109
4817.0 0.0002076 4314.70898 4873.36572
4758.0 0.0002102 4313.49951 4877.08447
4883.0 0.0002048 4312.27881 4881.85889
4797.0 0.0002085 4311.04688 4887.79688
4794.0 0.0002086 4309.80371 4895.03955
4905.0 0.0002039 4308.54932 4903.76123
4939.0 0.0002025 4307.28369 4914.17529
4946.0 0.0002022 4306.00684 4927.89307
4890.0 0.0002045 4304.71875 4942.49219
4850.0 0.0002062 4303.41992 4958.80127
4859.0 0.0002058 4302.10986 4978.76758
4920.0 0.0002033 4300.78809 5001.87695
4878.0 0.0002050 4299.45557 5028.40625
4847.0 0.0002063 4298.11182 5058.57617
5090.0 0.0001965 4296.75732 5093.21045
4995.0 0.0002002 4295.39160 5048.57373
5078.0 0.0001969 4294.01514 5091.28955
4901.0 0.0002040 4292.62744 5137.13574
5033.0 0.0001987 4291.22900 5185.33936
5114.0 0.0001955 4289.81982 5234.68701
5104.0 0.0001959 4288.39941 5283.48242
5206.0 0.0001921 4286.96826 5329.61035
5319.0 0.0001880 4285.52637 5335.10156
5269.0 0.0001898 4284.07373 5369.93115
5334.0 0.0001875 4282.61035 5396.54053
5261.0 0.0001901 4281.13623 5414.72510
5274.0 0.0001896 4279.65137 5425.19922
5157.0 0.0001939 4278.15674 5429.14453
5355.0 0.0001867 4276.65088 5427.75684
5179.0 0.0001931 4275.13477 5422.00684
5211.0 0.0001919 4273.60840 5412.72852
5219.0 0.0001916 4272.07129 5400.82080
5162.0 0.0001937 4270.52393 5387.41748
5162.0 0.0001937 4268.96680 5373.86279
5151.0 0.0001941 4267.39893 5361.54346
5114.0 0.0001955 4265.82129 5351.69043
5191.0 0.0001926 4264.23340 5345.27197
5039.0 0.0001985 4262.63574 5342.95752
5007.0 0.0001997 4261.02783 5345.16943
4966.0 0.0002014 4259.41016 5352.12451
5153.0 0.0001941 4257.78223 5363.91211
5168.0 0.0001935 4256.14502 5380.54053
5003.0 0.0001999 4254.49805 5401.97510
5037.0 0.0001985 4252.84180 5428.17627
5045.0 0.0001982 4251.17529 5459.11572
5211.0 0.0001919 4249.50000 5494.79736
5233.0 0.0001911 4247.81494 5535.27100
5315.0 0.0001881 4246.12061 5580.64453
5293.0 0.0001889 4244.41699 5631.08984
5338.0 0.0001873 4242.70410 5686.85840
5420.0 0.0001845 4240.98193 5748.27002
5488.0 0.0001822 4239.25098 5815.74316
5361.0 0.0001865 4237.51172 5889.77881
5672.0 0.0001763 4235.76270 5970.98242
5630.0 0.0001776 4234.00537 6061.37061
5753.0 0.0001738 4232.23926 6159.20020
5673.0 0.0001763 4230.46436 6266.72607
5930.0 0.0001686 4228.68066 6385.07275
6189.0 0.0001616 4226.88916 6515.53223
6193.0 0.0001615 4225.08887 6659.57373
6244.0 0.0001602 4223.28076 6818.85986
6615.0 0.0001512 4221.46436 6995.88135
6902.0 0.0001449 4219.63916 7191.38574
7025.0 0.0001423 4217.80664 7408.19727
7282.0 0.0001373 4215.96582 7648.62061
7576.0 0.0001320 4214.11768 7915.03906
7941.0 0.0001259 4212.26123 8209.85449
8201.0 0.0001219 4210.39746 8535.46777
8480.0 0.0001179 4208.52637 8894.25293
8875.0 0.0001127 4206.64746 9288.58203
9397.0 0.0001064 4204.76123 9720.89258
9924.0 0.0001008 4202.86768 10193.71191
10350.0 0.0000966 4200.96729 10735.84180
11098.0 0.0000901 4199.05957 11297.73340
11664.0 0.0000857 4197.14453 11907.38867
12412.0 0.0000806 4195.22314 12565.98438
13375.0 0.0000748 4193.29492 13273.00586
14213.0 0.0000704 4191.35986 14025.35449
15418.0 0.0000649 4189.41846 14816.27734
16577.0 0.0000603 4187.47021 15647.25000
17975.0 0.0000556 4185.51563 16475.11133
19184.0 0.0000521 4183.55469 17289.13672
20471.0 0.0000488 4181.58789 18060.06445
21428.0 0.0000467 4179.61475 18755.13672
21950.0 0.0000456 4177.63574 19342.10352
22328.0 0.0000448 4175.65137 19820.98633
23034.0 0.0000434 4173.66064 20122.21094
22978.0 0.0000435 4171.66406 20267.90039
22695.0 0.0000441 4169.66211 20265.08008
21942.0 0.0000456 4167.65479 20128.38867
21651.0 0.0000462 4165.64160 19876.00195
20960.0 0.0000477 4163.62354 19526.86523
20564.0 0.0000486 4161.60059 19113.26758
19238.0 0.0000520 4159.57227 18628.91992
18856.0 0.0000530 4157.53906 18108.80664
17851.0 0.0000560 4155.50098 17576.61719
17146.0 0.0000583 4153.45801 17056.64063
16525.0 0.0000605 4151.41064 16571.87500
15716.0 0.0000636 4149.35840 16142.43555
15287.0 0.0000654 4147.30176 15784.53906
15188.0 0.0000658 4145.24121 15510.25000
14820.0 0.0000675 4143.17578 15327.67871
15137.0 0.0000661 4141.10693 15241.41992
15139.0 0.0000661 4139.03369 15252.94727
15064.0 0.0000664 4136.95654 15360.88477
15379.0 0.0000650 4134.87549 15561.14063
15740.0 0.0000635 4132.79053 15846.95801
15956.0 0.0000627 4130.70215 16209.04297
16588.0 0.0000603 4128.61035 16636.01367
16821.0 0.0000594 4126.51465 17115.28125
17603.0 0.0000568 4124.41650 17634.32031
17903.0 0.0000559 4122.31445 18182.22266
18666.0 0.0000536 4120.20947 18750.91406
18912.0 0.0000529 4118.10156 19335.78516
19603.0 0.0000510 4115.99072 19935.46094
20198.0 0.0000495 4113.87646 20550.82031
20942.0 0.0000478 4111.76025 21198.92969
21474.0 0.0000466 4109.64111 21864.04688
22093.0 0.0000453 4107.51953 22535.13867
23210.0 0.0000431 4105.39551 23222.08203
24252.0 0.0000412 4103.26904 23918.28516
25325.0 0.0000395 4101.14014 24612.55078
26291.0 0.0000380 4099.00928 25288.17188
27585.0 0.0000363 4096.87646 25929.98242
28511.0 0.0000351 4094.74170 26501.08008
29274.0 0.0000342 4092.60498 26963.91797
30016.0 0.0000333 4090.46680 27292.31445
30133.0 0.0000332 4088.32690 27458.22070
30033.0 0.0000333 4086.18530 27442.64844
29635.0 0.0000337 4084.04199 27238.54883
28741.0 0.0000348 4081.89746 26850.72070
28462.0 0.0000351 4079.75146 26293.10352
26867.0 0.0000372 4077.60449 25584.84375
26210.0 0.0000382 4075.45630 24746.97266
25013.0 0.0000400 4073.30713 23800.90820
23454.0 0.0000426 4071.15723 22768.46875
22421.0 0.0000446 4069.00610 21672.57422
20845.0 0.0000480 4066.85425 20537.43359
19708.0 0.0000507 4064.70166 19387.71680
18371.0 0.0000544 4062.54858 18247.01367
17206.0 0.0000581 4060.39478 17136.17773
15730.0 0.0000636 4058.24072 16072.09375
14490.0 0.0000690 4056.08618 15067.18652
13608.0 0.0000735 4053.93188 14129.56250
13084.0 0.0000764 4051.77686 13263.55762
12367.0 0.0000809 4049.62183 12470.46582
11807.0 0.0000847 4047.46655 11749.29297
11087.0 0.0000902 4045.31152 11097.40332
10781.0 0.0000928 4043.15649 10511.05273
10186.0 0.0000982 4041.00171 9985.81152
9880.0 0.0001012 4038.84717 9516.87891
9409.0 0.0001063 4036.69287 9099.31445
9111.0 0.0001098 4034.53955 8728.21387
8755.0 0.0001142 4032.38623 8398.83203
8402.0 0.0001190 4030.23340 8106.65967
8028.0 0.0001246 4028.08105 7847.50098
8057.0 0.0001241 4025.92969 7617.49170
7741.0 0.0001292 4023.77881 7413.13477
7635.0 0.0001310 4021.62866 7231.28369
7418.0 0.0001348 4019.47949 7069.15723
7232.0 0.0001383 4017.33179 6924.30762
7018.0 0.0001425 4015.18481 6794.60840
6935.0 0.0001442 4013.03857 6678.22705
6736.0 0.0001485 4010.89355 6573.58936
6675.0 0.0001498 4008.74976 6479.36621
6443.0 0.0001552 4006.60718 6394.43848
6524.0 0.0001533 4004.46582 6317.86963
6399.0 0.0001563 4002.32593 6248.88379
6384.0 0.0001566 4000.18774 6186.84766
6105.0 0.0001638 3998.05054 6131.25000
6152.0 0.0001625 3995.91504 6081.68066
6161.0 0.0001623 3993.78101 6037.82764
6044.0 0.0001655 3991.64844 5999.45361
5907.0 0.0001693 3989.51758 5966.39111
5815.0 0.0001720 3987.38843 5938.52832
5858.0 0.0001707 3985.26123 5915.79883
5873.0 0.0001703 3983.13550 5898.18213
5839.0 0.0001713 3981.01221 5885.67676
5904.0 0.0001694 3978.89038 5878.30029
5956.0 0.0001679 3976.77026 5876.08008
5790.0 0.0001727 3974.65234 5879.02490
5982.0 0.0001672 3972.53613 5887.12402
5897.0 0.0001696 3970.42212 5900.32178
5925.0 0.0001688 3968.31006 5918.48584
6058.0 0.0001651 3966.20020 5941.37891
5878.0 0.0001701 3964.09277 5968.61768
6072.0 0.0001647 3961.98730 5999.62500
6026.0 0.0001659 3959.88379 6033.60303
6105.0 0.0001638 3957.78271 6069.52441
6109.0 0.0001637 3955.68359 6106.18262
6301.0 0.0001587 3953.58691 6142.31543
6272.0 0.0001594 3951.49243 6176.80322
6320.0 0.0001582 3949.40039 6208.88232
6382.0 0.0001567 3947.31104 6238.29248
6242.0 0.0001602 3945.22363 6265.28906
6414.0 0.0001559 3943.13867 6290.54443
6413.0 0.0001559 3941.05591 6314.94824
6587.0 0.0001518 3938.97559 6339.46094
6538.0 0.0001530 3936.89771 6365.04883
6529.0 0.0001532 3934.82251 6392.73975
6703.0 0.0001492 3932.74951 6423.69043
6667.0 0.0001500 3930.67896 6459.27148
6652.0 0.0001503 3928.61133 6501.08643
6724.0 0.0001487 3926.54590 6550.94189
6847.0 0.0001460 3924.48291 6610.83350
6927.0 0.0001444 3922.42236 6682.93262
7215.0 0.0001386 3920.36450 6769.63623
7353.0 0.0001360 3918.30884 6873.63477
7440.0 0.0001344 3916.25586 6998.01465
7478.0 0.0001337 3914.20557 7146.35986
7709.0 0.0001297 3912.15796 7322.84131
8027.0 0.0001246 3910.11255 7532.27393
8273.0 0.0001209 3908.06934 7780.14941
8472.0 0.0001180 3906.02905 8072.61426
9046.0 0.0001105 3903.99097 8416.38184
9332.0 0.0001072 3901.95557 8818.60156
9862.0 0.0001014 3899.92261 9286.62695
10309.0 0.0000970 3897.89209 9827.74805
10869.0 0.0000920 3895.86450 10448.80859
11664.0 0.0000857 3893.83887 11155.77344
12263.0 0.0000815 3891.81592 11953.14844
12885.0 0.0000776 3889.79517 12843.27539
14115.0 0.0000708 3887.77686 13825.41895
14951.0 0.0000669 3885.76099 14894.59570
16164.0 0.0000619 3883.74756 16040.19824
17413.0 0.0000574 3881.73633 17244.64453
18922.0 0.0000528 3879.72778 18482.60938
20230.0 0.0000494 3877.72168 19721.71289
21301.0 0.0000469 3875.71753 20925.63477
22756.0 0.0000439 3873.71558 22059.58594
23735.0 0.0000421 3871.71606 23096.58984
24747.0 0.0000404 3869.71875 24021.40625
25224.0 0.0000396 3867.72339 24829.63477
25968.0 0.0000385 3865.73047 25522.28516
26036.0 0.0000384 3863.73975 26099.03125
26504.0 0.0000377 3861.75146 26554.33008
26384.0 0.0000379 3859.76489 26878.45898
26352.0 0.0000379 3857.78027 27062.77930
26106.0 0.0000383 3855.79785 27105.99609
26050.0 0.0000384 3853.81738 27017.84570
25560.0 0.0000391 3851.83887 26818.33008
25458.0 0.0000393 3849.86206 26533.18750
25107.0 0.0000398 3847.88745 26188.08203
24713.0 0.0000405 3845.91504 25803.89648
24144.0 0.0000414 3843.94409 25394.47461
23944.0 0.0000418 3841.97485 24966.59180
23372.0 0.0000428 3840.00732 24521.30664
23224.0 0.0000431 3838.04150 24055.72461
23342.0 0.0000428 3836.07739 23564.61328
23166.0 0.0000432 3834.11475 23041.83984
22423.0 0.0000446 3832.15381 22483.60547
22105.0 0.0000452 3830.19434 21882.71680
21508.0 0.0000465 3828.23682 21240.18750
20690.0 0.0000483 3826.28052 20558.41211
20057.0 0.0000499 3824.32544 19842.25391
19490.0 0.0000513 3822.37158 19097.90234
18314.0 0.0000546 3820.41919 18331.78320
17786.0 0.0000562 3818.46802 17550.03516
16724.0 0.0000598 3816.51807 16759.52539
16036.0 0.0000624 3814.56909 15964.78320
15093.0 0.0000663 3812.62158 15173.70703
14503.0 0.0000690 3810.67505 14394.04688
13464.0 0.0000743 3808.72925 13633.86621
12998.0 0.0000769 3806.78442 12918.68164
12043.0 0.0000830 3804.84058 12219.70215
11447.0 0.0000874 3802.89771 11559.63574
10812.0 0.0000925 3800.95532 10941.91699
10352.0 0.0000966 3799.01392 10365.94531
9617.0 0.0001040 3797.07349 9847.46680
9469.0 0.0001056 3795.13330 9362.42773
8809.0 0.0001135 3793.19360 8919.65625
8508.0 0.0001175 3791.25439 8526.02832
8248.0 0.0001212 3789.31567 8161.14014
7910.0 0.0001264 3787.37744 7831.16650
7638.0 0.0001309 3785.43945 7498.15039
7319.0 0.0001366 3783.50171 7230.00684
7214.0 0.0001386 3781.56421 6985.34961
6917.0 0.0001446 3779.62720 6768.00391
6789.0 0.0001473 3777.68970 6572.26758
6616.0 0.0001511 3775.75244 6395.77588
6361.0 0.0001572 3773.81519 6228.14844
6196.0 0.0001614 3771.87793 6084.19385
6092.0 0.0001641 3769.94043 5953.75439
5867.0 0.0001704 3768.00269 5831.09961
5702.0 0.0001754 3766.06470 5723.22510
5644.0 0.0001772 3764.12671 5624.67773
5597.0 0.0001787 3762.18774 5530.18262
5499.0 0.0001819 3760.24854 5447.21826
5453.0 0.0001834 3758.30908 5370.71875
5346.0 0.0001871 3756.36865 5299.96289
5156.0 0.0001939 3754.42773 5234.32764
5123.0 0.0001952 3752.48584 5173.27393
5067.0 0.0001974 3750.54346 5116.33447
4976.0 0.0002010 3748.60059 5018.89355
5119.0 0.0001954 3746.65625 4969.54883
5076.0 0.0001970 3744.71118 4923.24902
4814.0 0.0002077 3742.76514 4879.72412
4878.0 0.0002050 3740.81763 4838.74268
4837.0 0.0002067 3738.86914 4800.09766
4783.0 0.0002091 3736.91943 4763.60742
4904.0 0.0002039 3734.96875 4704.50293
4684.0 0.0002135 3733.01636 4672.14355
4735.0 0.0002112 3731.06299 4641.49609
4701.0 0.0002127 3729.10791 4612.44141
4619.0 0.0002165 3727.15112 4584.87354
4640.0 0.0002155 3725.19287 4558.69629
4566.0 0.0002190 3723.23291 4533.82129
4700.0 0.0002128 3721.27124 4510.16895
4532.0 0.0002207 3719.30786 4487.66504
4507.0 0.0002219 3717.34253 4466.24121
4470.0 0.0002237 3715.37573 4445.83789
4529.0 0.0002208 3713.40649 4426.39551
4383.0 0.0002282 3711.43530 4407.86230
4550.0 0.0002198 3709.46216 4390.18848
4386.0 0.0002280 3707.48657 4373.33252
4556.0 0.0002195 3705.50903 4357.25244
4433.0 0.0002256 3703.52905 4341.90918
4346.0 0.0002301 3701.54688 4327.26855
4365.0 0.0002291 3699.56274 4313.29932
4308.0 0.0002321 3697.57568 4299.96875
4344.0 0.0002302 3695.58618 4287.25195
4302.0 0.0002325 3693.59399 4275.12305
4350.0 0.0002299 3691.59937 4263.56006
4271.0 0.0002341 3689.60205 4252.53955
4295.0 0.0002328 3687.60205 4242.04297
4397.0 0.0002274 3685.59912 4232.05322
4252.0 0.0002352 3683.59351 4222.55371
4218.0 0.0002371 3681.58545 4213.52930
4299.0 0.0002326 3679.57373 4204.96777
4156.0 0.0002406 3677.55933 4214.29053
4169.0 0.0002399 3675.54175 4205.58496
4257.0 0.0002349 3673.52124 4198.62402
4131.0 0.0002421 3671.49731 4192.09033
4154.0 0.0002407 3669.47046 4185.97900
4053.0 0.0002467 3667.44019 4180.28613
4052.0 0.0002468 3665.40723 4175.00488
4187.0 0.0002388 3663.37036 4170.13379
4153.0 0.0002408 3661.33008 4173.73633
4174.0 0.0002396 3659.28662 4169.81787
4010.0 0.0002494 3657.23926 4166.31104
4104.0 0.0002437 3655.18872 4163.21777
4008.0 0.0002495 3653.13452 4160.54297
3978.0 0.0002514 3651.07666 4166.45117
4000.0 0.0002500 3649.01563 4164.74658
3943.0 0.0002536 3646.95044 4163.48145
4030.0 0.0002481 3644.88159 4170.94482
3854.0 0.0002595 3642.80884 4170.67139
3995.0 0.0002503 3640.73242 4170.87305
3828.0 0.0002612 3638.65210 4171.56250
4027.0 0.0002483 3636.56787 4172.75781
4080.0 0.0002451 3634.47974 4178.55078
3944.0 0.0002535 3632.38770 4180.87744
4049.0 0.0002470 3630.29199 4183.77539
3945.0 0.0002535 3628.19189 4191.39453
4023.0 0.0002486 3626.08789 4195.56396
4007.0 0.0002496 3623.97949 4200.39893
4056.0 0.0002465 3621.86743 4205.93457
3999.0 0.0002501 3619.75098 4212.21826
4000.0 0.0002500 3617.63037 4219.29541
4007.0 0.0002496 3615.50537 4227.22119
4114.0 0.0002431 3613.37695 4236.21191
4016.0 0.0002490 3611.24365 4246.02832
4189.0 0.0002387 3609.10596 4256.90186
4057.0 0.0002465 3606.96411 4268.92090
4114.0 0.0002431 3604.81812 4282.19043
3998.0 0.0002501 3602.66772 4296.82471
4160.0 0.0002404 3600.51294 4312.96338
4204.0 0.0002379 3598.35352 4330.76221
4090.0 0.0002445 3596.19043 4350.48682
4188.0 0.0002388 3594.02246 4372.20752
4146.0 0.0002412 3591.85010 4396.26611
4256.0 0.0002350 3589.67358 4422.98926
4270.0 0.0002342 3587.49219 4452.77002
4430.0 0.0002257 3585.30664 4486.09863
4521.0 0.0002212 3583.11670 4523.57129
4562.0 0.0002192 3580.92212 4565.92773
4550.0 0.0002198 3578.72314 4614.07617
4596.0 0.0002176 3576.52002 4669.11621
4487.0 0.0002229 3574.31201 4733.66895
4629.0 0.0002160 3572.09961 4806.75977
4805.0 0.0002081 3569.88281 4891.51904
5085.0 0.0001967 3567.66138 4990.09912
5108.0 0.0001958 3565.43555 5109.94385
5134.0 0.0001948 3563.20532 5243.83740
5343.0 0.0001872 3560.97046 5399.72461
5604.0 0.0001784 3558.73169 5580.79102
5753.0 0.0001738 3556.48804 5790.96680
5965.0 0.0001676 3554.23999 6032.21045
6238.0 0.0001603 3551.98730 6308.14941
6616.0 0.0001511 3549.73047 6621.31104
6797.0 0.0001471 3547.46899 6976.00146
7151.0 0.0001398 3545.20313 7368.08252
7617.0 0.0001313 3542.93311 7799.46045
7973.0 0.0001254 3540.65894 8267.76074
8494.0 0.0001177 3538.38013 8768.18164
9101.0 0.0001099 3536.09692 9292.80566
9788.0 0.0001022 3533.80933 9829.83789
10614.0 0.0000942 3531.51758 10363.11426
10983.0 0.0000910 3529.22144 10872.21777
11609.0 0.0000861 3526.92114 11333.78906
12321.0 0.0000812 3524.61646 11724.32910
12599.0 0.0000794 3522.30786 12024.11621
13126.0 0.0000762 3519.99536 12221.04199
13098.0 0.0000763 3517.67822 12286.26367
13353.0 0.0000749 3515.35718 12278.86133
13078.0 0.0000765 3513.03198 12183.75293
12881.0 0.0000776 3510.70288 12013.83594
12662.0 0.0000790 3508.36963 11780.56055
12073.0 0.0000828 3506.03247 11493.25684
11502.0 0.0000869 3503.69141 11160.35449
11360.0 0.0000880 3501.34692 10791.26758
10902.0 0.0000917 3498.99805 10384.67773
10569.0 0.0000946 3496.64551 9980.54297
10067.0 0.0000993 3494.28906 9580.47949
9446.0 0.0001059 3491.92896 9198.54004
9216.0 0.0001085 3489.56519 8846.78223
8705.0 0.0001149 3487.19800 8507.81934
8380.0 0.0001193 3484.82690 8242.27832
8131.0 0.0001230 3482.45313 8027.35498
8050.0 0.0001242 3480.07520 7865.41650
7828.0 0.0001277 3477.69385 7757.27637
7810.0 0.0001280 3475.30908 7702.53662
7726.0 0.0001294 3472.92114 7699.80859
7725.0 0.0001294 3470.53003 7746.83105
7730.0 0.0001294 3468.13550 7812.40967
7829.0 0.0001277 3465.73804 7949.00635
8085.0 0.0001237 3463.33740 8123.10791
8100.0 0.0001235 3460.93433 8328.30469
8411.0 0.0001189 3458.52783 8556.64551
8565.0 0.0001168 3456.11841 8798.50488
8735.0 0.0001145 3453.70630 9042.68848
8887.0 0.0001125 3451.29126 9276.92676
8877.0 0.0001127 3448.87354 9488.89355
9045.0 0.0001106 3446.45337 9667.62793
9219.0 0.0001085 3444.03076 9804.99219
9346.0 0.0001070 3441.60596 9896.69238
9224.0 0.0001084 3439.17847 9942.38574
9125.0 0.0001096 3436.74829 9944.85156
9114.0 0.0001097 3434.31616 9917.73535
9066.0 0.0001103 3431.88208 9847.83496
9109.0 0.0001098 3429.44556 9748.69336
8902.0 0.0001123 3427.00732 9624.41895
8919.0 0.0001121 3424.56689 9479.17676
8868.0 0.0001128 3422.12524 9317.75977
8652.0 0.0001156 3419.68140 9145.96094
8661.0 0.0001155 3417.23584 8970.53418
8440.0 0.0001185 3414.78882 8803.40039
8397.0 0.0001191 3412.34009 8643.10547
8304.0 0.0001204 3409.89014 8501.43262
8333.0 0.0001200 3407.43896 8385.17188
8392.0 0.0001192 3404.98633 8300.41211
8387.0 0.0001192 3402.53271 8252.47363
8604.0 0.0001162 3400.07837 8245.90820
8438.0 0.0001185 3397.62280 8284.51563
8538.0 0.0001171 3395.16602 8371.37305
8511.0 0.0001175 3392.70874 8508.80469
8823.0 0.0001133 3390.25098 8698.31250
9259.0 0.0001080 3387.79224 8940.36230
9403.0 0.0001063 3385.33325 9234.07813
9744.0 0.0001026 3382.87378 9576.81348
10074.0 0.0000993 3380.41455 9963.56250
10535.0 0.0000949 3377.95483 10386.33008
11051.0 0.0000905 3375.49487 10833.51953
11472.0 0.0000872 3373.03491 11289.56641
11854.0 0.0000844 3370.57520 11735.27930
12580.0 0.0000795 3368.11572 12149.22656
13228.0 0.0000756 3365.65649 12510.43750
13742.0 0.0000728 3363.19775 12801.86621
13931.0 0.0000718 3360.74023 13013.49414
14008.0 0.0000714 3358.28271 13143.64746
13882.0 0.0000720 3355.82593 13197.71191
13735.0 0.0000728 3353.37012 13184.94922
13453.0 0.0000743 3350.91504 13114.81543
13252.0 0.0000755 3348.46143 12994.44141
13032.0 0.0000767 3346.00879 12827.99512
12608.0 0.0000793 3343.55762 12625.57422
12314.0 0.0000812 3341.10791 12373.33105
11887.0 0.0000841 3338.66016 12081.98828
11429.0 0.0000875 3336.21338 11756.03418
10984.0 0.0000910 3333.76855 11401.32031
10384.0 0.0000963 3331.32568 11024.61328
10141.0 0.0000986 3328.88477 10633.13477
9563.0 0.0001046 3326.44604 10234.17188
9214.0 0.0001085 3324.00952 9838.51660
8679.0 0.0001152 3321.57544 9444.22168
8361.0 0.0001196 3319.14404 9059.54590
8121.0 0.0001231 3316.71509 8687.27734
7704.0 0.0001298 3314.28857 8328.87305
7355.0 0.0001360 3311.86499 7985.03174
7189.0 0.0001391 3309.44434 7656.30078
7055.0 0.0001417 3307.02686 7353.62061
6800.0 0.0001471 3304.61255 7057.92090
6406.0 0.0001561 3302.20142 6780.51904
6244.0 0.0001602 3299.79419 6522.53613
6078.0 0.0001645 3297.39014 6284.69043
5822.0 0.0001718 3294.98975 6067.17139
5745.0 0.0001741 3292.59302 5869.64453
5605.0 0.0001784 3290.20044 5691.34961
5529.0 0.0001809 3287.81177 5531.26123
5424.0 0.0001844 3285.42725 5393.28662
5294.0 0.0001889 3283.04712 5266.10693
5149.0 0.0001942 3280.67114 5153.56641
5028.0 0.0001989 3278.30054 5054.52002
4993.0 0.0002003 3275.93384 4967.85938
4852.0 0.0002061 3273.57202 4892.53857
5011.0 0.0001996 3271.21509 4827.57324
5026.0 0.0001990 3268.86304 4772.08740
4830.0 0.0002070 3266.51611 4731.81348
4775.0 0.0002094 3264.17480 4693.21533
4700.0 0.0002128 3261.83862 4662.22705
4801.0 0.0002083 3259.50830 4639.22607
4809.0 0.0002079 3257.18335 4622.47119
4720.0 0.0002119 3254.86401 4612.52637
4730.0 0.0002114 3252.55054 4609.29395
4855.0 0.0002060 3250.24341 4612.77344
4954.0 0.0002019 3247.94214 4626.24170
4889.0 0.0002045 3245.64722 4643.43945
4930.0 0.0002028 3243.35840 4667.75830
4755.0 0.0002103 3241.07666 4699.83838
4882.0 0.0002048 3238.80127 4739.27148
5079.0 0.0001969 3236.53247 4786.79932
5133.0 0.0001948 3234.27051 4842.83057
5325.0 0.0001878 3232.01563 4907.79736
5310.0 0.0001883 3229.76758 4982.14551
5433.0 0.0001841 3227.52686 5066.29980
5605.0 0.0001784 3225.29370 5163.95654
5693.0 0.0001757 3223.06763 5268.89014
5516.0 0.0001813 3220.84985 5384.59375
5828.0 0.0001716 3218.63940 5511.15234
5871.0 0.0001703 3216.43652 5648.45361
6015.0 0.0001663 3214.24170 5796.11279
6187.0 0.0001616 3212.05469 5953.39307
6373.0 0.0001569 3209.87598 6119.11084
6624.0 0.0001510 3207.70581 6291.53613
6732.0 0.0001485 3205.54370 6469.98193
6931.0 0.0001443 3203.39063 6648.12207
6918.0 0.0001446 3201.24561 6823.88428
7038.0 0.0001421 3199.10938 6992.98682
7306.0 0.0001369 3196.98218 7150.77783
7279.0 0.0001374 3194.86377 7292.54639
7501.0 0.0001333 3192.75439 7413.93799
7551.0 0.0001324 3190.65430 7511.36133
7557.0 0.0001323 3188.56348 7582.94092
7568.0 0.0001321 3186.48242 7626.31152
7612.0 0.0001314 3184.41040 7642.22607
7693.0 0.0001300 3182.34814 7631.98242
7455.0 0.0001341 3180.29541 7597.74707
7508.0 0.0001332 3178.25269 7542.23730
7527.0 0.0001329 3176.21973 7468.50488
7483.0 0.0001336 3174.19702 7379.79932
7369.0 0.0001357 3172.18433 7279.86426
7161.0 0.0001396 3170.18164 7171.76270
7177.0 0.0001393 3168.18994 7059.68799
7136.0 0.0001401 3166.20825 6947.73096
7133.0 0.0001402 3164.23706 6844.60010
7002.0 0.0001428 3162.27637 6745.46436
7012.0 0.0001426 3160.32666 6658.74951
6753.0 0.0001481 3158.38770 6588.11279
6832.0 0.0001464 3156.45947 6536.82715
6837.0 0.0001463 3154.54248 6507.74414
6818.0 0.0001467 3152.63672 6503.29346
6910.0 0.0001447 3150.74194 6525.48096
7025.0 0.0001423 3148.85864 6575.88965
6999.0 0.0001429 3146.98633 6657.92432
7014.0 0.0001426 3145.12573 6767.75098
7350.0 0.0001361 3143.27661 6907.72119
7354.0 0.0001360 3141.43921 7077.29199
7418.0 0.0001348 3139.61328 7275.11426
7522.0 0.0001329 3137.79980 7498.82178
7701.0 0.0001299 3135.99756 7744.78613
7894.0 0.0001267 3134.20752 8007.81689
8139.0 0.0001229 3132.42944 8280.90820
8235.0 0.0001214 3130.66333 8555.08105
8497.0 0.0001177 3128.90991 8819.54102
8783.0 0.0001139 3127.16797 9062.28027
8786.0 0.0001138 3125.43921 9271.21777
8849.0 0.0001130 3123.72217 9435.77441
8831.0 0.0001132 3122.01807 9548.39453
8860.0 0.0001129 3120.32593 9605.55469
9062.0 0.0001104 3118.64722 9607.72949
8743.0 0.0001144 3116.98047 9558.43750
8691.0 0.0001151 3115.32715 9462.77441
8448.0 0.0001184 3113.68652 9326.09277
8323.0 0.0001201 3112.05811 9153.29590
8175.0 0.0001223 3110.44336 8948.84961
8119.0 0.0001232 3108.84082 8717.28223
7826.0 0.0001278 3107.25220 8463.79492
7617.0 0.0001313 3105.67578 8194.53027
7465.0 0.0001340 3104.11328 7916.43359
7188.0 0.0001391 3102.56421 7636.76172
7194.0 0.0001390 3101.02734 7362.48389
6813.0 0.0001468 3099.50464 7099.79883
6603.0 0.0001514 3097.99463 6853.86768
6564.0 0.0001523 3096.49854 6630.71045
6543.0 0.0001528 3095.01563 6429.34521
6321.0 0.0001582 3093.54639 6253.78955
6190.0 0.0001616 3092.09033 6105.32178
6077.0 0.0001646 3090.64819 5984.60547
6125.0 0.0001633 3089.21973 5891.80029
6063.0 0.0001649 3087.80444 5826.65381
6035.0 0.0001657 3086.40332 5788.55518
6025.0 0.0001660 3085.01538 5776.56006
5950.0 0.0001681 3083.64160 5790.38721
5998.0 0.0001667 3082.28101 5826.39014
5996.0 0.0001668 3080.93506 5883.43213
6012.0 0.0001663 3079.60205 5958.82471
6166.0 0.0001622 3078.28345 6049.17090
6028.0 0.0001659 3076.97876 6150.22314
6130.0 0.0001631 3075.68750 6256.79932
6305.0 0.0001586 3074.41040 6362.82275
6372.0 0.0001569 3073.14697 6461.58984
6484.0 0.0001542 3071.89771 6546.32129
6352.0 0.0001574 3070.66211 6610.94922
6197.0 0.0001614 3069.44067 6650.95215
6353.0 0.0001574 3068.23340 6663.94922
6209.0 0.0001611 3067.03931 6649.80127
6173.0 0.0001620 3065.85986 6610.17529
6122.0 0.0001633 3064.69409 6547.74219
6214.0 0.0001609 3063.54224 6465.38037
5979.0 0.0001673 3062.40430 6365.66846
6074.0 0.0001646 3061.28052 6250.78857
5625.0 0.0001778 3060.17041 6122.77002
5685.0 0.0001759 3059.07471 5983.85791
5607.0 0.0001783 3057.99292 5836.77246
5513.0 0.0001814 3056.92456 5684.72510
5341.0 0.0001872 3055.87061 5541.68750
5191.0 0.0001926 3054.82983 5390.25732
5010.0 0.0001996 3053.80371 5243.87012
4974.0 0.0002010 3052.79077 5105.05029
4838.0 0.0002067 3051.79224 4975.68604
4773.0 0.0002095 3050.80713 4857.06494
4715.0 0.0002121 3049.83618 4749.95166
4693.0 0.0002131 3048.87866 4654.69043
4612.0 0.0002168 3047.93481 4571.29443
4606.0 0.0002171 3047.00513 4504.78613
4659.0 0.0002146 3046.08862 4444.33936
4582.0 0.0002182 3045.18628 4394.60693
4551.0 0.0002197 3044.29688 4354.97070
4469.0 0.0002238 3043.42163 4324.74170
4533.0 0.0002206 3042.55981 4303.17969
4594.0 0.0002177 3041.71118 4289.49316
4464.0 0.0002240 3040.87622 4282.84180
4377.0 0.0002285 3040.05444 4280.53516
4480.0 0.0002232 3039.24634 4285.17041
4519.0 0.0002213 3038.45117 4293.88330
4593.0 0.0002177 3037.66943 4305.55273
4672.0 0.0002140 3036.90088 4319.05078
4653.0 0.0002149 3036.14551 4333.34717
4636.0 0.0002157 3035.40332 4347.63867
4704.0 0.0002126 3034.67383 4321.39209
4576.0 0.0002185 3033.95776 4335.06445
4781.0 0.0002092 3033.25415 4348.44775
4657.0 0.0002147 3032.56372 4362.06152
4750.0 0.0002105 3031.88574 4376.52490
4769.0 0.0002097 3031.22070 4392.47949
4824.0 0.0002073 3030.56812 4410.55078
4685.0 0.0002134 3029.92847 4431.37939
4858.0 0.0002058 3029.30103 4455.68555
4857.0 0.0002059 3028.68604 4484.34033
4897.0 0.0002042 3028.08350 4518.36768
5007.0 0.0001997 3027.49292 4558.94678
4871.0 0.0002053 3026.91479 4607.35303
5097.0 0.0001962 3026.34863 4664.89990
5095.0 0.0001963 3025.79468 4733.94629
5222.0 0.0001915 3025.25269 4813.75244
5363.0 0.0001865 3024.72217 4906.61816
5380.0 0.0001859 3024.20361 5013.80273
5348.0 0.0001870 3023.69678 5136.53320
5708.0 0.0001752 3023.20142 5275.99707
5812.0 0.0001721 3022.71753 5433.32227
5863.0 0.0001706 3022.24512 5609.54980
6074.0 0.0001646 3021.78369 5805.58447
6374.0 0.0001569 3021.33374 6022.65283
6517.0 0.0001534 3020.89502 6260.16895
6599.0 0.0001515 3020.46704 6518.70264
6832.0 0.0001464 3020.05005 6797.81836
7059.0 0.0001417 3019.64355 7096.44092
7355.0 0.0001360 3019.24805 7412.73193
7676.0 0.0001303 3018.86279 7743.95850
7974.0 0.0001254 3018.48828 8086.41650
8224.0 0.0001216 3018.12378 8435.41016
8312.0 0.0001203 3017.76978 8785.31641
8784.0 0.0001138 3017.42578 9129.73633
8868.0 0.0001128 3017.09180 9461.79395
9135.0 0.0001095 3016.76758 9774.56543
9432.0 0.0001060 3016.45313 10061.55762
9337.0 0.0001071 3016.14844 10317.24121
9685.0 0.0001033 3015.85303 10537.40430
9806.0 0.0001020 3015.56714 10719.32910
9850.0 0.0001015 3015.29053 10861.80859
10022.0 0.0000998 3015.02319 10964.96387
10022.0 0.0000998 3014.76465 11030.09570
9846.0 0.0001016 3014.51489 11059.44531
9966.0 0.0001003 3014.27393 11055.96582
10035.0 0.0000997 3014.04175 11023.01172
9846.0 0.0001016 3013.81787 10964.02344
10153.0 0.0000985 3013.60229 10882.19824
10089.0 0.0000991 3013.39502 10780.25977
9732.0 0.0001028 3013.19580 10660.39258
9856.0 0.0001015 3013.00439 10524.33691
9897.0 0.0001010 3012.82080 10373.63867
9771.0 0.0001023 3012.64502 10209.96387
9710.0 0.0001030 3012.47681 10035.37500
9558.0 0.0001046 3012.31567 9852.48926
9421.0 0.0001061 3012.16187 9664.42871
9350.0 0.0001070 3012.01514 9474.61621
9124.0 0.0001096 3011.87524 9287.00488
9082.0 0.0001101 3011.74243 9103.65234
8801.0 0.0001136 3011.61597 8927.65039
8793.0 0.0001137 3011.49609 8760.91797
8638.0 0.0001158 3011.38232 8604.75000
8612.0 0.0001161 3011.27490 8459.90625
8506.0 0.0001176 3011.17358 8326.68652
8291.0 0.0001206 3011.07813 8204.94336
8146.0 0.0001228 3010.98828 8094.03027
7912.0 0.0001264 3010.90405 7992.93604
8031.0 0.0001245 3010.82520 7899.20752
7957.0 0.0001257 3010.75171 7810.58301
8050.0 0.0001242 3010.68311 7724.21289
7737.0 0.0001292 3010.61963 7637.32813
7782.0 0.0001285 3010.56079 7547.69238
7788.0 0.0001284 3010.50659 7453.94141
7526.0 0.0001329 3010.45703 7355.65771
7577.0 0.0001320 3010.41162 7253.15039
7371.0 0.0001357 3010.37012 7147.04199
7348.0 0.0001361 3010.33301 7037.82227
7385.0 0.0001354 3010.29956 6929.00879
7127.0 0.0001403 3010.26953 6813.23389
6854.0 0.0001459 3010.24316 6693.09521
6758.0 0.0001480 3010.21997 6567.71729
6807.0 0.0001469 3010.20020 6436.55469
6662.0 0.0001501 3010.18311 6299.66357
6490.0 0.0001541 3010.16895 6157.84229
6320.0 0.0001582 3010.15771 6012.55273
6220.0 0.0001608 3010.14868 5865.69092
6033.0 0.0001658 3010.14185 5720.98438
5978.0 0.0001673 3010.13745 5567.28320
5756.0 0.0001737 3010.13477 5426.83545
5471.0 0.0001828 3010.13403 5290.97266
5451.0 0.0001835 3010.13501 5160.26123
5299.0 0.0001887 3010.13745 5035.03809
5111.0 0.0001957 3010.14111 4915.57910
4975.0 0.0002010 3010.14600 4802.19434
4829.0 0.0002071 3010.15161 4695.25293
4804.0 0.0002082 3010.15820 4595.14551
4767.0 0.0002098 3010.16553 4497.20068
4535.0 0.0002205 3010.17310 4411.73047
4610.0 0.0002169 3010.18115 4333.75781
4357.0 0.0002295 3010.18921 4263.23145
4246.0 0.0002355 3010.19727 4199.97168
4385.0 0.0002281 3010.20508 4143.71094
4265.0 0.0002345 3010.21240 4094.11157
4223.0 0.0002368 3010.21924 4058.46509
4094.0 0.0002443 3010.22534 4021.17358
4162.0 0.0002403 3010.23071 3989.43433
4043.0 0.0002473 3010.23486 3965.05591
3927.0 0.0002546 3010.23779 3943.47266
3924.0 0.0002548 3010.23926 3926.55420
3941.0 0.0002537 3010.23926 3914.11182
3937.0 0.0002540 3010.23755 3906.02124
3796.0 0.0002634 3010.23364 3902.24438
3797.0 0.0002634 3010.22803 3906.63403
3871.0 0.0002583 3010.21997 3911.74878
3914.0 0.0002555 3010.20947 3921.60132
3795.0 0.0002635 3010.19653 3937.61255
3790.0 0.0002639 3010.18066 3958.13232
3878.0 0.0002579 3010.16211 3984.81470
3851.0 0.0002597 3010.14038 4018.38110
3958.0 0.0002527 3010.11523 4059.68335
3893.0 0.0002569 3010.08691 4109.68652
4078.0 0.0002452 3010.05493 4169.46973
3982.0 0.0002511 3010.01929 4240.20313
4147.0 0.0002411 3009.97974 4323.11914
4090.0 0.0002445 3009.93604 4414.11426
4123.0 0.0002425 3009.88818 4525.24268
4248.0 0.0002354 3009.83594 4652.28516
4375.0 0.0002286 3009.77930 4796.33447
4535.0 0.0002205 3009.71777 4958.30273
4689.0 0.0002133 3009.65161 5138.84570
4886.0 0.0002047 3009.58032 5338.25635
4990.0 0.0002004 3009.50366 5556.37500
5312.0 0.0001883 3009.42188 5775.20410
5530.0 0.0001808 3009.33472 6027.79688
5905.0 0.0001693 3009.24170 6294.18555
6260.0 0.0001597 3009.14307 6570.57324
6763.0 0.0001479 3009.03857 6851.73535
7274.0 0.0001375 3008.92773 7130.77734
7723.0 0.0001295 3008.81079 7399.33887
8421.0 0.0001188 3008.68750 7647.86865
8899.0 0.0001124 3008.55786 7866.43945
9376.0 0.0001067 3008.42139 8045.89453
9520.0 0.0001050 3008.27808 8179.13428
9721.0 0.0001029 3008.12769 8262.14551
9771.0 0.0001023 3007.97021 8294.36523
9440.0 0.0001059 3007.80566 8278.26660
9381.0 0.0001066 3007.63354 8218.28223
9184.0 0.0001089 3007.45410 8119.49902
9002.0 0.0001111 3007.26685 7986.70801
8696.0 0.0001150 3007.07178 7823.93018
8324.0 0.0001201 3006.86865 7634.57227
7998.0 0.0001250 3006.65771 7421.94043
7818.0 0.0001279 3006.43848 7189.80518
7471.0 0.0001339 3006.21094 6942.71729
7107.0 0.0001407 3005.97485 6685.95557
6797.0 0.0001471 3005.72998 6425.13721
6229.0 0.0001605 3005.47656 6165.71875
5866.0 0.0001705 3005.21460 5912.54297
5567.0 0.0001796 3004.94336 5669.55664
5210.0 0.0001919 3004.66284 5439.70410
4976.0 0.0002010 3004.37354 5224.97217
4661.0 0.0002145 3004.07446 5026.50488
4700.0 0.0002128 3003.76611 4844.77100
4342.0 0.0002303 3003.44824 4683.15430
4280.0 0.0002336 3003.12061 4534.32959
4222.0 0.0002369 3002.78345 4400.97070
4027.0 0.0002483 3002.43604 4282.14697
3920.0 0.0002551 3002.07861 4176.80371
3826.0 0.0002614 3001.71118 4083.82544
3884.0 0.0002575 3001.33350 4002.07275
3727.0 0.0002683 3000.94531 3930.42432
3726.0 0.0002684 3000.54688 3867.79443
3652.0 0.0002738 3000.13794 3813.16211
3624.0 0.0002759 2999.71826 3767.31104
3639.0 0.0002748 2999.28784 3725.92993
3672.0 0.0002723 2998.84644 3689.95532
3527.0 0.0002835 2998.39429 3658.70361
3507.0 0.0002851 2997.93091 3631.57642
3497.0 0.0002860 2997.45679 3608.06201
3574.0 0.0002798 2996.97095 3587.72681
3529.0 0.0002834 2996.47437 3576.69922
3560.0 0.0002809 2995.96582 3561.79321
3551.0 0.0002816 2995.44629 3549.18677
3490.0 0.0002865 2994.91528 3542.57104
3497.0 0.0002860 2994.37231 3534.11938
3518.0 0.0002843 2993.81763 3527.56348
3403.0 0.0002939 2993.25122 3523.00928
3327.0 0.0003006 2992.67310 3520.10181
3487.0 0.0002868 2992.08301 3519.00073
3484.0 0.0002870 2991.48096 3522.93970
3479.0 0.0002874 2990.86694 3525.55249
3623.0 0.0002760 2990.24072 3530.06104
3495.0 0.0002861 2989.60229 3538.44458
3476.0 0.0002877 2988.95142 3546.93677
3605.0 0.0002774 2988.28857 3557.49487
3474.0 0.0002879 2987.61328 3570.17212
3667.0 0.0002727 2986.92554 3585.09546
3662.0 0.0002731 2986.22534 3602.12939
3662.0 0.0002731 2985.51270 3621.36279
3740.0 0.0002674 2984.78760 3642.76489
3628.0 0.0002756 2984.04956 3666.26343
3717.0 0.0002690 2983.29932 3691.72656
3824.0 0.0002615 2982.53589 3718.95093
3690.0 0.0002710 2981.76001 3747.64258
3793.0 0.0002636 2980.97119 3777.41138
3854.0 0.0002595 2980.16992 3807.77271
3855.0 0.0002594 2979.35522 3838.15332
3824.0 0.0002615 2978.52832 3867.93677
3867.0 0.0002586 2977.68848 3896.51001
3937.0 0.0002540 2976.83521 3923.32959
3976.0 0.0002515 2975.96948 3948.00122
3944.0 0.0002535 2975.09033 3970.31348
4110.0 0.0002433 2974.19873 3990.26099
4042.0 0.0002474 2973.29370 4008.00928
4096.0 0.0002441 2972.37598 4023.84155
4103.0 0.0002437 2971.44507 4038.07983
4146.0 0.0002412 2970.50098 4051.02979
3969.0 0.0002520 2969.54419 4062.94287
4192.0 0.0002385 2968.57397 4074.01733
4161.0 0.0002403 2967.59106 4084.42725
4114.0 0.0002431 2966.59473 4094.37158
4130.0 0.0002421 2965.58569 4104.12744
4245.0 0.0002356 2964.56323 4114.09326
4202.0 0.0002380 2963.52808 4124.79736
4389.0 0.0002278 2962.47998 4136.89355
4277.0 0.0002338 2961.41846 4151.11670
4121.0 0.0002427 2960.34424 4168.22559
4266.0 0.0002344 2959.25659 4188.93115
4327.0 0.0002311 2958.15649 4213.85010
4476.0 0.0002234 2957.04297 4243.46924
4436.0 0.0002254 2955.91699 4278.13330
4351.0 0.0002298 2954.77759 4318.03809
4445.0 0.0002250 2953.62573 4353.07080
4438.0 0.0002253 2952.46094 4403.58643
4380.0 0.0002283 2951.28296 4459.03076
4625.0 0.0002162 2950.09277 4530.92627
4631.0 0.0002159 2948.88916 4594.61963
4643.0 0.0002154 2947.67334 4660.90869
4558.0 0.0002194 2946.44458 4728.41113
4743.0 0.0002108 2945.20337 4795.49219
4768.0 0.0002097 2943.94971 4860.39893
4939.0 0.0002025 2942.68286 4916.42334
4959.0 0.0002017 2941.40405 4972.35986
4996.0 0.0002002 2940.11255 5022.35303
4962.0 0.0002015 2938.80884 5072.31934
5005.0 0.0001998 2937.49243 5111.11963
5011.0 0.0001996 2936.16406 5145.97119
5150.0 0.0001942 2934.82324 5178.61816
5217.0 0.0001917 2933.47070 5210.99072
5228.0 0.0001913 2932.10596 5238.35547
5233.0 0.0001911 2930.72876 5275.97705
5164.0 0.0001936 2929.33984 5318.90625
5278.0 0.0001895 2927.93896 5368.92480
5450.0 0.0001835 2926.52661 5427.86230
5509.0 0.0001815 2925.10181 5497.59619
5642.0 0.0001772 2923.66602 5579.99463
5618.0 0.0001780 2922.21802 5676.76709
5767.0 0.0001734 2920.75903 5775.14063
5836.0 0.0001714 2919.28882 5904.51367
5969.0 0.0001675 2917.80664 6050.77295
6154.0 0.0001625 2916.31372 6213.28760
6375.0 0.0001569 2914.80908 6390.41846
6599.0 0.0001515 2913.29395 6579.36572
6773.0 0.0001476 2911.76733 6776.05029
6908.0 0.0001448 2910.23022 6975.07227
6999.0 0.0001429 2908.68262 7169.80713
7559.0 0.0001323 2907.12354 7352.73438
7471.0 0.0001339 2905.55444 7516.01563
7717.0 0.0001296 2903.97437 7652.29688
7796.0 0.0001283 2902.38452 7755.56982
7784.0 0.0001285 2900.78369 7821.84766
7737.0 0.0001292 2899.17334 7849.48828
7740.0 0.0001292 2897.55249 7839.02539
7472.0 0.0001338 2895.92212 7792.63330
7492.0 0.0001335 2894.28223 7713.40527
7384.0 0.0001354 2892.63184 7615.72363
7095.0 0.0001409 2890.97241 7480.87305
7007.0 0.0001427 2889.30298 7322.67871
6864.0 0.0001457 2887.62476 7143.96143
6604.0 0.0001514 2885.93677 6947.70410
6435.0 0.0001554 2884.24048 6737.27002
6146.0 0.0001627 2882.53418 6516.47461
6032.0 0.0001658 2880.82007 6289.48438
5878.0 0.0001701 2879.09717 6061.94434
5511.0 0.0001815 2877.36499 5835.21338
5292.0 0.0001890 2875.62500 5633.06494
5113.0 0.0001956 2873.87622 5421.24951
5098.0 0.0001962 2872.11963 5220.65479
4949.0 0.0002021 2870.35474 5032.93799
4752.0 0.0002104 2868.58252 4859.11816
4596.0 0.0002176 2866.80225 4699.68506
4469.0 0.0002238 2865.01392 4554.67969
4496.0 0.0002224 2863.21899 4423.81543
4230.0 0.0002364 2861.41577 4306.55225
4154.0 0.0002407 2859.60645 4208.72314
4088.0 0.0002446 2857.78906 4116.46973
4145.0 0.0002413 2855.96558 4035.36426
4030.0 0.0002481 2854.13477 3964.47119
3989.0 0.0002507 2852.29810 3902.85645
3822.0 0.0002616 2850.45508 3849.60889
3932.0 0.0002543 2848.60498 3803.85547
3780.0 0.0002646 2846.74976 3768.73828
3802.0 0.0002630 2844.88770 3735.67651
3733.0 0.0002679 2843.02075 3707.89868
3786.0 0.0002641 2841.14722 3684.82324
3800.0 0.0002632 2839.26904 3665.95190
3812.0 0.0002623 2837.38501 3659.56152
3703.0 0.0002701 2835.49658 3648.01172
3742.0 0.0002672 2833.60303 3629.11743
3817.0 0.0002620 2831.70410 3623.80420
3790.0 0.0002639 2829.80103 3621.29468
3731.0 0.0002680 2827.89307 3621.50562
3711.0 0.0002695 2825.98145 3624.41357
3901.0 0.0002563 2824.06519 3630.05347
3795.0 0.0002635 2822.14551 3638.52710
3803.0 0.0002630 2820.22217 3649.98999
3751.0 0.0002666 2818.29443 3663.73291
3941.0 0.0002537 2816.36401 3682.01025
3917.0 0.0002553 2814.42969 3704.11792
4022.0 0.0002486 2812.49292 3730.46655
4098.0 0.0002440 2810.55249 3761.53027
4017.0 0.0002489 2808.61035 3797.85059
4113.0 0.0002431 2806.66479 3840.03101
4108.0 0.0002434 2804.71753 3888.74805
4301.0 0.0002325 2802.76807 3944.72900
4207.0 0.0002377 2800.81616 4008.75708
4207.0 0.0002377 2798.86279 4081.65625
4339.0 0.0002305 2796.90747 4164.27490
4383.0 0.0002282 2794.95093 4257.47803
4567.0 0.0002190 2792.99268 4362.10840
4533.0 0.0002206 2791.03418 4478.97314
4641.0 0.0002155 2789.07397 4608.80371
4648.0 0.0002151 2787.11377 4752.21924
4818.0 0.0002076 2785.15283 4909.67188
5060.0 0.0001976 2783.19092 5081.39502
5263.0 0.0001900 2781.22974 5267.33398
5460.0 0.0001832 2779.26758 5467.04834
5535.0 0.0001807 2777.30664 5679.62451
5514.0 0.0001814 2775.34521 5903.56250
5803.0 0.0001723 2773.38501 6137.18994
5901.0 0.0001695 2771.42554 6376.47021
6303.0 0.0001587 2769.46655 6618.09668
6343.0 0.0001577 2767.50903 6857.44873
6510.0 0.0001536 2765.55225 7089.27637
6793.0 0.0001472 2763.59790 7307.99902
6976.0 0.0001433 2761.64429 7508.14063
7276.0 0.0001374 2759.69336 7684.85400
7272.0 0.0001375 2757.74365 7834.88379
7417.0 0.0001348 2755.79712 7954.89795
7307.0 0.0001369 2753.85278 8044.84326
7455.0 0.0001341 2751.91040 8104.69336
7475.0 0.0001338 2749.97168 8136.09766
7524.0 0.0001329 2748.03516 8140.81055
7418.0 0.0001348 2746.10254 8120.50830
7544.0 0.0001326 2744.17236 8076.51807
7379.0 0.0001355 2742.24658 8009.83008
7301.0 0.0001370 2740.32373 7921.27930
7277.0 0.0001374 2738.40576 7812.13281
7004.0 0.0001428 2736.49170 7683.38232
7080.0 0.0001412 2734.58105 7537.43652
6897.0 0.0001450 2732.67578 7377.13965
6771.0 0.0001477 2730.77441 7205.85742
6773.0 0.0001476 2728.87842 7027.20898
6413.0 0.0001559 2726.98682 6844.76221
6347.0 0.0001576 2725.10107 6661.77979
6284.0 0.0001591 2723.22070 6481.05420
6079.0 0.0001645 2721.34497 6304.85938
6058.0 0.0001651 2719.47607 6134.99805
5708.0 0.0001752 2717.61206 5972.90186
5715.0 0.0001750 2715.75488 5819.76465
5611.0 0.0001782 2713.90308 5676.65088
5521.0 0.0001811 2712.05859 5544.56641
5536.0 0.0001806 2710.21997 5424.50684
5312.0 0.0001883 2708.38867 5317.45752
5211.0 0.0001919 2706.56470 5224.37598
5306.0 0.0001885 2704.74683 5146.18506
5224.0 0.0001914 2702.93677 5083.76563
5139.0 0.0001946 2701.13379 5037.94385
5211.0 0.0001919 2699.33887 5009.50830
5084.0 0.0001967 2697.55127 4999.21143
5197.0 0.0001924 2695.77222 5007.77734
5120.0 0.0001953 2694.00049 5035.90283
5285.0 0.0001892 2692.23779 5084.24414
5433.0 0.0001841 2690.48364 5153.39941
5391.0 0.0001855 2688.73730 5243.88721
5482.0 0.0001824 2687.00049 5356.10059
5630.0 0.0001776 2685.27197 5490.25195
5611.0 0.0001782 2683.55298 5646.32568
5843.0 0.0001711 2681.84277 5823.99170
6145.0 0.0001627 2680.14258 6022.51611
6311.0 0.0001585 2678.45190 6240.63965
6605.0 0.0001514 2676.77026 6476.43799
6772.0 0.0001477 2675.09912 6727.16602
6993.0 0.0001430 2673.43750 6989.05859
7486.0 0.0001336 2671.78662 7257.36963
7579.0 0.0001319 2670.14526 7525.57959
8108.0 0.0001233 2668.51514 7786.47852
8238.0 0.0001214 2666.89478 8034.84766
8493.0 0.0001177 2665.28589 8255.99609
8700.0 0.0001149 2663.68774 8444.87988
8801.0 0.0001136 2662.10034 8597.55566
9152.0 0.0001093 2660.52441 8704.68945
9095.0 0.0001100 2658.95923 8767.49805
8935.0 0.0001119 2657.40601 8787.34082
8906.0 0.0001123 2655.86377 8767.68359
8926.0 0.0001120 2654.33398 8712.80957
8825.0 0.0001133 2652.81543 8626.37793
8553.0 0.0001169 2651.30908 8516.12891
8500.0 0.0001176 2649.81519 8381.48730
8364.0 0.0001196 2648.33252 8227.07031
8132.0 0.0001230 2646.86304 8057.31982
7959.0 0.0001256 2645.40527 7873.29443
7744.0 0.0001291 2643.96069 7680.65527
7483.0 0.0001336 2642.52808 7484.49854
7311.0 0.0001368 2641.10889 7290.37012
6991.0 0.0001430 2639.70288 7099.55859
7274.0 0.0001375 2638.30908 6926.08105
6796.0 0.0001471 2636.92871 6768.58740
6553.0 0.0001526 2635.56128 6634.56055
6399.0 0.0001563 2634.20776 6525.78906
6443.0 0.0001552 2632.86694 6444.91797
6526.0 0.0001532 2631.54028 6394.13428
6584.0 0.0001519 2630.22681 6375.17480
6390.0 0.0001565 2628.92749 6389.41748
6553.0 0.0001526 2627.64185 6437.94385
6699.0 0.0001493 2626.36987 6521.58105
6810.0 0.0001468 2625.11206 6640.92090
6958.0 0.0001437 2623.86792 6796.26025
7006.0 0.0001427 2622.63867 6987.73193
7125.0 0.0001404 2621.42310 7214.98975
7480.0 0.0001337 2620.22241 7477.26563
7691.0 0.0001300 2619.03540 7773.20898
8046.0 0.0001243 2617.86353 8100.72412
8350.0 0.0001198 2616.70605 8456.79688
8538.0 0.0001171 2615.56299 8829.66211
9216.0 0.0001085 2614.43481 9229.62695
9480.0 0.0001055 2613.32104 9642.61914
9661.0 0.0001035 2612.22266 10061.52344
10171.0 0.0000983 2611.13867 10476.68457
10604.0 0.0000943 2610.07007 10885.07227
10822.0 0.0000924 2609.01636 11277.95898
11319.0 0.0000883 2607.97729 11649.96680
11641.0 0.0000859 2606.95410 11997.00098
12062.0 0.0000829 2605.94531 12312.05859
12441.0 0.0000804 2604.95215 12600.00391
12687.0 0.0000788 2603.97388 12853.64551
13037.0 0.0000767 2603.01147 13068.67285
13290.0 0.0000752 2602.06396 13238.63086
13505.0 0.0000740 2601.13208 13359.70020
13830.0 0.0000723 2600.21558 13425.29199
13737.0 0.0000728 2599.31445 13431.65527
14090.0 0.0000710 2598.42896 13377.93359
14058.0 0.0000711 2597.55859 13266.74219
14010.0 0.0000714 2596.70410 13103.93359
13958.0 0.0000716 2595.86499 12897.65039
13415.0 0.0000745 2595.04150 12657.02832
13130.0 0.0000762 2594.23340 12390.92090
12692.0 0.0000788 2593.44141 12107.01270
12177.0 0.0000821 2592.66479 11811.52246
12052.0 0.0000830 2591.90356 11509.34473
11615.0 0.0000861 2591.15845 11204.53418
11130.0 0.0000898 2590.42847 10900.79297
10960.0 0.0000912 2589.71436 10601.74902
10376.0 0.0000964 2589.01587 10310.97168
10042.0 0.0000996 2588.33301 10034.89844
9846.0 0.0001016 2587.66602 9769.62402
9371.0 0.0001067 2587.01440 9519.69824
9103.0 0.0001099 2586.37842 9285.16016
8572.0 0.0001167 2585.75781 9064.71777
8364.0 0.0001196 2585.15332 8856.05371
8215.0 0.0001217 2584.56396 8656.13770
7862.0 0.0001272 2583.99023 8461.79980
7677.0 0.0001303 2583.43213 8270.21680
7409.0 0.0001350 2582.88940 8079.27734
7142.0 0.0001400 2582.36230 7889.34277
6999.0 0.0001429 2581.85059 7699.41064
6837.0 0.0001463 2581.35425 7505.99756
6616.0 0.0001511 2580.87305 7312.06445
6581.0 0.0001520 2580.40771 7118.01758
6331.0 0.0001580 2579.95703 6924.09033
6171.0 0.0001620 2579.52222 6730.39453
6026.0 0.0001659 2579.10205 6537.02588
6047.0 0.0001654 2578.69751 6344.22754
5650.0 0.0001770 2578.30786 6152.54053
5576.0 0.0001793 2577.93311 5962.85938
5449.0 0.0001835 2577.57349 5777.69189
5391.0 0.0001855 2577.22876 5595.86377
5298.0 0.0001888 2576.89868 5420.12695
5015.0 0.0001994 2576.58350 5251.85400
4910.0 0.0002037 2576.28345 5092.21533
4881.0 0.0002049 2575.99780 4942.12988
4601.0 0.0002173 2575.72656 4802.22998
4538.0 0.0002204 2575.46997 4672.88574
4456.0 0.0002244 2575.22778 4554.22168
4425.0 0.0002260 2575.00000 4446.16260
4504.0 0.0002220 2574.78638 4348.45361
4374.0 0.0002286 2574.58716 4260.70605
4229.0 0.0002365 2574.40186 4182.40186
4232.0 0.0002363 2574.23071 4112.92432
4244.0 0.0002356 2574.07349 4051.56641
4155.0 0.0002407 2573.92993 3997.54590
4122.0 0.0002426 2573.80029 3950.01904
4266.0 0.0002344 2573.68408 3908.10986
4173.0 0.0002396 2573.58154 3870.93237
4153.0 0.0002408 2573.49243 3837.63257
4137.0 0.0002417 2573.41650 3807.42407
4158.0 0.0002405 2573.35400 3779.61597
4141.0 0.0002415 2573.30444 3753.62085
4239.0 0.0002359 2573.26807 3728.94409
3987.0 0.0002508 2573.24438 3709.16333
4178.0 0.0002393 2573.23340 3685.96704
3970.0 0.0002519 2573.23511 3662.98145
4049.0 0.0002470 2573.24951 3639.92065
3984.0 0.0002510 2573.27612 3616.55518
3998.0 0.0002501 2573.31519 3592.73145
3828.0 0.0002612 2573.36621 3568.39355
3849.0 0.0002598 2573.42920 3543.57910
3771.0 0.0002652 2573.50415 3518.41406
3776.0 0.0002648 2573.59082 3493.08276
3734.0 0.0002678 2573.68921 3469.78101
3521.0 0.0002840 2573.79907 3444.78174
3714.0 0.0002693 2573.91992 3420.25073
3562.0 0.0002807 2574.05225 3396.37793
3603.0 0.0002775 2574.19556 3373.34058
3532.0 0.0002831 2574.34985 3351.30786
3519.0 0.0002842 2574.51465 3331.90405
3505.0 0.0002853 2574.69019 3315.82642
3426.0 0.0002919 2574.87598 3297.89282
3438.0 0.0002909 2575.07227 3281.65918
3387.0 0.0002952 2575.27856 3271.61670
3380.0 0.0002959 2575.49487 3259.33569
3401.0 0.0002940 2575.72095 3249.24756
3433.0 0.0002913 2575.95679 3241.51465
3406.0 0.0002936 2576.20190 3236.41162
3392.0 0.0002948 2576.45654 3233.89941
3347.0 0.0002988 2576.72021 3234.27856
3322.0 0.0003010 2576.99292 3238.49878
3427.0 0.0002918 2577.27417 3247.06372
3402.0 0.0002939 2577.56421 3257.55884
3439.0 0.0002908 2577.86279 3271.97998
3424.0 0.0002921 2578.16943 3292.83252
3398.0 0.0002943 2578.48438 3316.14575
3454.0 0.0002895 2578.80713 3344.44214
3469.0 0.0002883 2579.13770 3378.16016
3620.0 0.0002762 2579.47583 3417.57690
3593.0 0.0002783 2579.82129 3463.12183
3570.0 0.0002801 2580.17407 3515.14111
3729.0 0.0002682 2580.53369 3573.94214
3715.0 0.0002692 2580.90015 3639.76758
3901.0 0.0002563 2581.27319 3712.77100
3862.0 0.0002589 2581.65283 3792.99365
3929.0 0.0002545 2582.03857 3880.32959
3902.0 0.0002563 2582.43042 3974.48486
4145.0 0.0002413 2582.82813 4074.93530
4194.0 0.0002384 2583.23145 4179.00781
4119.0 0.0002428 2583.64014 4289.35059
4276.0 0.0002339 2584.05444 4402.51709
4462.0 0.0002241 2584.47339 4516.56982
4523.0 0.0002211 2584.89722 4629.16113
4567.0 0.0002190 2585.32593 4737.57324
4675.0 0.0002139 2585.75903 4838.86377
4747.0 0.0002107 2586.19653 4930.02393
5038.0 0.0001985 2586.63794 5008.24756
4990.0 0.0002004 2587.08325 5071.17871
5114.0 0.0001955 2587.53198 5105.96875
5124.0 0.0001952 2587.98413 5134.97949
5122.0 0.0001952 2588.43994 5133.30518
5195.0 0.0001925 2588.89819 5126.51709
5107.0 0.0001958 2589.35986 5103.65430
5093.0 0.0001963 2589.82373 5066.16162
4979.0 0.0002008 2590.29004 5015.54443
4965.0 0.0002014 2590.75854 4953.22705
5003.0 0.0001999 2591.22900 4880.52979
4886.0 0.0002047 2591.70117 4799.01563
4684.0 0.0002135 2592.17480 4709.30322
4777.0 0.0002093 2592.65015 4609.01172
4577.0 0.0002185 2593.12622 4507.85254
4370.0 0.0002288 2593.60327 4403.31543
4479.0 0.0002233 2594.08105 4297.11572
4314.0 0.0002318 2594.55933 4190.96240
4243.0 0.0002357 2595.03760 4086.44238
4098.0 0.0002440 2595.51611 3984.95288
4097.0 0.0002441 2595.99438 3887.63770
3910.0 0.0002558 2596.47217 3795.37134
3734.0 0.0002678 2596.94946 3708.92773
3619.0 0.0002763 2597.42578 3629.33447
3612.0 0.0002769 2597.90112 3560.86182
3561.0 0.0002808 2598.37500 3492.83984
3519.0 0.0002842 2598.84766 3430.94434
3580.0 0.0002793 2599.31836 3374.96460
3357.0 0.0002979 2599.78735 3324.62842
3373.0 0.0002965 2600.25415 3279.60693
3283.0 0.0003046 2600.71826 3239.54785
3284.0 0.0003045 2601.18018 3204.07886
3162.0 0.0003163 2601.63916 3172.82446
3232.0 0.0003094 2602.09521 3145.41431
3225.0 0.0003101 2602.54785 3124.39429
3160.0 0.0003165 2602.99707 3103.65137
3232.0 0.0003094 2603.44263 3085.73950
3073.0 0.0003254 2603.88403 3070.36743
3107.0 0.0003219 2604.32178 3057.26953
3063.0 0.0003265 2604.75488 3046.21143
3018.0 0.0003313 2605.18359 3036.98682
3017.0 0.0003315 2605.60742 3029.42017
2991.0 0.0003343 2606.02637 3023.36450
3025.0 0.0003306 2606.43994 3024.24829
3088.0 0.0003238 2606.84839 3020.94897
3025.0 0.0003306 2607.25098 3007.88867
2899.0 0.0003449 2607.64795 3014.20947
2934.0 0.0003408 2608.03882 3014.71606
3026.0 0.0003305 2608.42334 3016.39624
2999.0 0.0003334 2608.80151 3019.27075
2998.0 0.0003336 2609.17285 3023.38452
3066.0 0.0003262 2609.53760 3028.79834
3017.0 0.0003315 2609.89502 3034.20752
3086.0 0.0003240 2610.24512 3045.23755
2880.0 0.0003472 2610.58789 3040.70923
2911.0 0.0003435 2610.92285 3052.83765
2972.0 0.0003365 2611.24976 3070.01514
2998.0 0.0003336 2611.56885 3085.68579
3109.0 0.0003216 2611.87939 3103.44238
3061.0 0.0003267 2612.18140 3123.41821
3114.0 0.0003211 2612.47485 3145.73706
3118.0 0.0003207 2612.75928 3170.51563
3100.0 0.0003226 2613.03442 3197.84937
3158.0 0.0003167 2613.30054 3227.81299
3255.0 0.0003072 2613.55688 3251.74048
3123.0 0.0003202 2613.80371 3289.28369
3300.0 0.0003030 2614.04028 3327.47021
3234.0 0.0003092 2614.26709 3368.02686
3127.0 0.0003198 2614.48364 3410.89307
3329.0 0.0003004 2614.68970 3455.77734
3341.0 0.0002993 2614.88477 3502.26611
3302.0 0.0003028 2615.06909 3549.81104
3320.0 0.0003012 2615.24268 3597.71509
3430.0 0.0002915 2615.40479 3645.12939
3480.0 0.0002874 2615.55566 3691.06592
3495.0 0.0002861 2615.69482 3725.67725
3505.0 0.0002853 2615.82227 3765.52026
3580.0 0.0002793 2615.93750 3800.69482
3598.0 0.0002779 2616.04102 3830.37085
3594.0 0.0002782 2616.13208 3853.99292
3669.0 0.0002726 2616.21045 3871.33105
3711.0 0.0002695 2616.27637 3882.48486
3778.0 0.0002647 2616.32959 3887.81226
3766.0 0.0002655 2616.36987 3887.84766
3771.0 0.0002652 2616.39673 3883.18872
3827.0 0.0002613 2616.41040 3870.06738
3712.0 0.0002694 2616.41064 3857.76099
3741.0 0.0002673 2616.39722 3842.32690
3584.0 0.0002790 2616.37012 3824.19946
3703.0 0.0002701 2616.32910 3803.83105
3702.0 0.0002701 2616.27393 3781.73877
3666.0 0.0002728 2616.20435 3758.52075
3726.0 0.0002684 2616.12061 3734.85498
3636.0 0.0002750 2616.02222 3711.47681
3768.0 0.0002654 2615.90894 3689.13184
3635.0 0.0002751 2615.78125 3668.54224
3566.0 0.0002804 2615.63843 3650.37622
3578.0 0.0002795 2615.48022 3635.23486
3625.0 0.0002759 2615.30688 3623.64111
3652.0 0.0002738 2615.11841 3616.05322
3796.0 0.0002634 2614.91406 3612.92456
3685.0 0.0002714 2614.69434 3614.51074
3726.0 0.0002684 2614.45874 3621.19604
3870.0 0.0002584 2614.20728 3633.29907
3871.0 0.0002583 2613.93970 3651.13599
3833.0 0.0002609 2613.65601 3675.03198
3734.0 0.0002678 2613.35596 3705.32324
3938.0 0.0002539 2613.03955 3742.36328
3959.0 0.0002526 2612.70679 3786.52759
3913.0 0.0002556 2612.35742 3837.68115
4117.0 0.0002429 2611.99097 3897.29639
4053.0 0.0002467 2611.60815 3965.27979
4203.0 0.0002379 2611.20825 4041.99683
4115.0 0.0002430 2610.79102 4127.88037
4361.0 0.0002293 2610.35693 4223.30811
4505.0 0.0002220 2609.90552 4328.61377
4644.0 0.0002153 2609.43701 4444.04346
4658.0 0.0002147 2608.95068 4569.80371
4826.0 0.0002072 2608.44727 4705.64014
4920.0 0.0002033 2607.92603 4851.95752
4971.0 0.0002012 2607.38721 5008.15039
5192.0 0.0001926 2606.83057 5174.03760
5214.0 0.0001918 2606.25586 5347.93164
5500.0 0.0001818 2605.66357 5529.01025
5620.0 0.0001779 2605.05298 5715.67529
5755.0 0.0001738 2604.42456 5905.95654
5868.0 0.0001704 2603.77783 6097.48682
5993.0 0.0001669 2603.11328 6288.12451
6280.0 0.0001592 2602.43042 6473.90088
6431.0 0.0001555 2601.72876 6652.32129
6492.0 0.0001540 2601.00903 6820.46777
6583.0 0.0001519 2600.27075 6975.74023
6592.0 0.0001517 2599.51440 7120.56006
6717.0 0.0001489 2598.73901 7244.54443
6958.0 0.0001437 2597.94531 7351.47510
7014.0 0.0001426 2597.13281 7441.33252
7009.0 0.0001427 2596.30176 7515.53320
7124.0 0.0001404 2595.45215 7572.90771
7122.0 0.0001404 2594.58350 7615.38037
7210.0 0.0001387 2593.69629 7643.03662
7075.0 0.0001413 2592.79028 7656.58105
7140.0 0.0001401 2591.86548 7656.40723
7239.0 0.0001381 2590.92163 7645.15332
7089.0 0.0001411 2589.95923 7619.40332
7205.0 0.0001388 2588.97754 7582.51807
7017.0 0.0001425 2587.97729 7536.24854
7101.0 0.0001408 2586.95825 7482.72119
6994.0 0.0001430 2585.91968 7424.75586
7078.0 0.0001413 2584.86279 7363.74170
7122.0 0.0001404 2583.78662 7302.23145
7034.0 0.0001422 2582.69165 7241.90723
7031.0 0.0001422 2581.57764 7183.94678
7015.0 0.0001426 2580.44482 7129.00977
7112.0 0.0001406 2579.29321 7077.27637
6916.0 0.0001446 2578.12231 7028.52539
6852.0 0.0001459 2576.93311 6982.25000
6772.0 0.0001477 2575.72437 6937.76807
6990.0 0.0001431 2574.49731 6894.36768
6880.0 0.0001453 2573.25098 6851.43750
6915.0 0.0001446 2571.98608 6808.58838
6872.0 0.0001455 2570.70215 6765.76221
6930.0 0.0001443 2569.39990 6723.24658
6808.0 0.0001469 2568.07886 6681.67285
6667.0 0.0001500 2566.73877 6641.76953
6776.0 0.0001476 2565.38037 6604.91309
6588.0 0.0001518 2564.00317 6572.00732
6709.0 0.0001491 2562.60767 6540.98535
6580.0 0.0001520 2561.19312 6518.88232
6732.0 0.0001485 2559.76074 6503.32568
6645.0 0.0001505 2558.30933 6492.33057
6596.0 0.0001516 2556.84033 6491.68262
6580.0 0.0001520 2555.35278 6499.04932
6555.0 0.0001526 2553.84668 6518.66113
6681.0 0.0001497 2552.32300 6543.10938
6425.0 0.0001556 2550.78052 6576.44775
6653.0 0.0001503 2549.22046 6618.55566
6622.0 0.0001510 2547.64209 6667.71387
6744.0 0.0001483 2546.04639 6726.65918
6773.0 0.0001476 2544.43286 6793.44580
6943.0 0.0001440 2542.80127 6866.32617
6833.0 0.0001463 2541.15234 6947.40283
6963.0 0.0001436 2539.48535 7034.74609
7085.0 0.0001411 2537.80151 7129.38721
7232.0 0.0001383 2536.09961 7226.44482
7248.0 0.0001380 2534.38135 7326.18750
7601.0 0.0001316 2532.64502 7426.60352
7700.0 0.0001299 2530.89233 7525.37012
7871.0 0.0001270 2529.12280 7620.08447
8033.0 0.0001245 2527.33569 7708.60742
8125.0 0.0001231 2525.53247 7789.40967
8256.0 0.0001211 2523.71191 7861.86719
8368.0 0.0001195 2521.87549 7926.38818
8429.0 0.0001186 2520.02222 7984.34814
8387.0 0.0001192 2518.15308 8037.82764
8498.0 0.0001177 2516.26709 8089.24463
8415.0 0.0001188 2514.36572 8140.95459
8313.0 0.0001203 2512.44849 8194.92676
8508.0 0.0001175 2510.51489 8252.55078
8563.0 0.0001168 2508.56616 8314.55762
8495.0 0.0001177 2506.60132 8381.05859
8546.0 0.0001170 2504.62183 8453.34863
8464.0 0.0001181 2502.62622 8526.99805
8594.0 0.0001164 2500.61621 8602.29395
8593.0 0.0001164 2498.59131 8677.25977
8533.0 0.0001172 2496.55078 8749.30176
8836.0 0.0001132 2494.49634 8815.20898
8716.0 0.0001147 2492.42676 8871.24023
8849.0 0.0001130 2490.34326 8913.34961
8760.0 0.0001142 2488.24487 8937.56641
8835.0 0.0001132 2486.13330 8940.42871
8630.0 0.0001159 2484.00708 8919.39355
8747.0 0.0001143 2481.86792 8873.99707
8800.0 0.0001136 2479.71484 8802.44531
8591.0 0.0001164 2477.54761 8706.70801
8326.0 0.0001201 2475.36816 8588.73828
8149.0 0.0001227 2473.17480 8450.91699
7977.0 0.0001254 2470.96924 8295.73145
7842.0 0.0001275 2468.75024 8125.48535
7805.0 0.0001281 2466.51929 7942.20117
7608.0 0.0001314 2464.27515 7747.68896
7377.0 0.0001356 2462.01978 7543.68896
7196.0 0.0001390 2459.75220 7332.07520
6994.0 0.0001430 2457.47192 7114.98096
6721.0 0.0001488 2455.18091 6894.87451
6534.0 0.0001530 2452.87744 6674.49756
6360.0 0.0001572 2450.56372 6456.75342
6248.0 0.0001601 2448.23804 6244.51563
5990.0 0.0001669 2445.90234 6040.48633
5883.0 0.0001700 2443.55566 5847.03467
5668.0 0.0001764 2441.19775 5666.11475
5567.0 0.0001796 2438.83032 5499.23682
5259.0 0.0001902 2436.45190 5347.48779
5140.0 0.0001946 2434.06445 5211.49121
5129.0 0.0001950 2431.66626 5091.56299
4809.0 0.0002079 2429.25952 4987.69482
4882.0 0.0002048 2426.84277 4901.13184
4965.0 0.0002014 2424.41748 4828.34131
4811.0 0.0002079 2421.98340 4770.12988
4779.0 0.0002092 2419.53979 4725.61084
4723.0 0.0002117 2417.08838 4693.72607
4753.0 0.0002104 2414.62769 4673.24609
4740.0 0.0002110 2412.16016 4662.77295
4656.0 0.0002148 2409.68359 4660.74316
4707.0 0.0002124 2407.20044 4665.40576
4775.0 0.0002094 2404.70898 4674.88477
4694.0 0.0002130 2402.21118 4687.47510
4714.0 0.0002121 2399.70630 4704.45605
4655.0 0.0002148 2397.19360 4716.42578
4868.0 0.0002054 2394.67554 4725.39014
4737.0 0.0002111 2392.15015 4729.77881
4708.0 0.0002124 2389.61938 4728.39209
4705.0 0.0002125 2387.08203 4720.43359
4663.0 0.0002145 2384.53979 4705.52832
4634.0 0.0002158 2381.99194 4683.67773
4674.0 0.0002139 2379.43823 4655.16504
4680.0 0.0002137 2376.88013 4620.45801
4599.0 0.0002174 2374.31665 4580.25146
4494.0 0.0002225 2371.74951 4534.83643
4592.0 0.0002178 2369.17676 4486.46826
4493.0 0.0002226 2366.60132 4432.58105
4300.0 0.0002326 2364.02075 4375.28271
4311.0 0.0002320 2361.43774 4315.19141
4331.0 0.0002309 2358.85107 4253.01709
4187.0 0.0002388 2356.26050 4189.56055
4194.0 0.0002384 2353.66797 4125.71875
4177.0 0.0002394 2351.07153 4062.44312
4056.0 0.0002465 2348.47363 4000.70728
4008.0 0.0002495 2345.87256 3941.46143
4063.0 0.0002461 2343.27075 3885.59521
3974.0 0.0002516 2340.66577 3833.92139
3851.0 0.0002597 2338.06030 3787.15479
3792.0 0.0002637 2335.45361 3745.91357
3864.0 0.0002588 2332.84497 3710.72144
3766.0 0.0002655 2330.23633 3682.01611
3760.0 0.0002660 2327.62598 3660.15405
3799.0 0.0002632 2325.01636 3645.41748
3823.0 0.0002616 2322.40576 3638.02051
3885.0 0.0002574 2319.79590 3638.10815
3833.0 0.0002609 2317.18652 3645.84399
3750.0 0.0002667 2314.57690 3661.06128
3845.0 0.0002601 2311.96875 3683.76807
3906.0 0.0002560 2309.36084 3713.80298
3878.0 0.0002579 2306.75513 3750.90967
3942.0 0.0002537 2304.14990 3794.72803
4044.0 0.0002473 2301.54736 3844.79077
4003.0 0.0002498 2298.94580 3905.86841
4075.0 0.0002454 2296.34741 3966.61279
4060.0 0.0002463 2293.75146 4031.48657
4163.0 0.0002402 2291.15698 4099.50439
4197.0 0.0002383 2288.56641 4169.56885
4187.0 0.0002388 2285.97827 4240.26563
4227.0 0.0002366 2283.39404 4310.12939
4260.0 0.0002347 2280.81274 4377.47803
4199.0 0.0002382 2278.23608 4440.52002
4243.0 0.0002357 2275.66235 4498.56885
4324.0 0.0002313 2273.09399 4547.64990
4405.0 0.0002270 2270.53003 4590.07959
4375.0 0.0002286 2267.96973 4619.49023
4389.0 0.0002278 2265.41553 4637.95068
4334.0 0.0002307 2262.86523 4645.43701
4364.0 0.0002291 2260.32153 4642.41699
4310.0 0.0002320 2257.78223 4629.72803
4366.0 0.0002290 2255.24976 4608.43018
4280.0 0.0002336 2252.72339 4579.63281
4296.0 0.0002328 2250.20215 4544.37207
4214.0 0.0002373 2247.68848 4504.13184
4194.0 0.0002384 2245.18042 4458.58545
4093.0 0.0002443 2242.68042 4409.02246
4107.0 0.0002435 2240.18652 4356.18359
4262.0 0.0002346 2237.70068 4300.90527
4158.0 0.0002405 2235.22144 4244.16016
4073.0 0.0002455 2232.75122 4187.05957
4010.0 0.0002494 2230.28857 4133.09131
4051.0 0.0002469 2227.83325 4079.03516
3997.0 0.0002502 2225.38745 4028.38940
3969.0 0.0002520 2222.94897 3982.31787
3891.0 0.0002570 2220.52051 3941.86865
3910.0 0.0002558 2218.09985 3909.53345
3923.0 0.0002549 2215.68945 3882.68262
3824.0 0.0002615 2213.28735 3863.43945
3734.0 0.0002678 2210.89600 3852.09253
3855.0 0.0002594 2208.51416 3848.74829
3767.0 0.0002655 2206.14160 3853.34863
3927.0 0.0002546 2203.77979 3867.04858
3805.0 0.0002628 2201.42773 3886.76123
3769.0 0.0002653 2199.08691 3913.17993
3804.0 0.0002629 2196.75610 3945.60645
3837.0 0.0002606 2194.43701 3983.17603
4035.0 0.0002478 2192.12915 4025.40308
4035.0 0.0002478 2189.83130 4069.37646
4105.0 0.0002436 2187.54614 4114.39502
4135.0 0.0002418 2185.27173 4158.79199
4246.0 0.0002355 2183.00977 4200.81738
4326.0 0.0002312 2180.75903 4238.71289
4357.0 0.0002295 2178.52148 4270.79150
4489.0 0.0002228 2176.29541 4295.70020
4624.0 0.0002163 2174.08252 4311.89355
4843.0 0.0002065 2171.88232 4318.66309
4833.0 0.0002069 2169.69409 4315.60449
4632.0 0.0002159 2167.51978 4302.62842
4659.0 0.0002146 2165.35791 4280.13184
4661.0 0.0002145 2163.20996 4248.75879
4398.0 0.0002274 2161.07471 4209.30664
4308.0 0.0002321 2158.95410 4162.62842
4371.0 0.0002288 2156.84619 4109.54785
4327.0 0.0002311 2154.75317 4050.81567
4152.0 0.0002408 2152.67432 3987.12793
4084.0 0.0002449 2150.60864 3919.14331
3958.0 0.0002527 2148.55811 3847.55127
3924.0 0.0002548 2146.52148 3773.09937
3757.0 0.0002662 2144.50024 3696.62158
3742.0 0.0002672 2142.49292 3619.02661
3665.0 0.0002729 2140.50122 3541.26440
3712.0 0.0002694 2138.52466 3464.27271
3462.0 0.0002889 2136.56250 3388.93140
3397.0 0.0002944 2134.61646 3316.01978
3272.0 0.0003056 2132.68506 3246.18286
3052.0 0.0003277 2130.76978 3179.92798
3108.0 0.0003218 2128.86963 3114.43945
2990.0 0.0003344 2126.98584 3056.38208
2932.0 0.0003411 2125.11719 3002.67554
2884.0 0.0003467 2123.26538 2953.38330
2838.0 0.000352 2121.42969 2908.49536
2742.0 0.000365 2119.60938 2867.94556
2786.0 0.000359 2117.80615 2831.63452
2760.0 0.000362 2116.01855 2799.43359
2743.0 0.000365 2114.24829 2771.19678
2795.0 0.000358 2112.49390 2746.76563
2671.0 0.000374 2110.75684 2708.28394
2700.0 0.000370 2109.03589 2691.14404
2668.0 0.000375 2107.33276 2677.33447
2671.0 0.000374 2105.64624 2666.70630
2613.0 0.000383 2103.97607 2659.12061
2730.0 0.000366 2102.32397 2654.39429
2562.0 0.000390 2100.68823 2652.51685
2606.0 0.000384 2099.07056 2653.32373
2757.0 0.000363 2097.46948 2656.71143
2698.0 0.000371 2095.88647 2662.58960
2764.0 0.000362 2094.32080 2670.86230
2690.0 0.000372 2092.77222 2681.43970
2806.0 0.000356 2091.24170 2694.23340
2712.0 0.000369 2089.72852 2709.13940
2745.0 0.000364 2088.23315 2726.05151
2777.0 0.000360 2086.75537 2744.83594
2773.0 0.000361 2085.29590 2763.73389
2895.0 0.0003454 2083.85376 2785.77466
2807.0 0.000356 2082.42993 2809.10327
2888.0 0.0003463 2081.02393 2833.43384
2930.0 0.0003413 2079.63574 2858.41724
2943.0 0.0003398 2078.26587 2883.65503
2974.0 0.0003362 2076.91333 2908.68359
2940.0 0.0003401 2075.57959 2933.00513
3000.0 0.0003333 2074.26343 2956.09570
3072.0 0.0003255 2072.96582 2977.44238
3003.0 0.0003330 2071.68604 2995.78687
3122.0 0.0003203 2070.42480 3012.36523
2994.0 0.0003340 2069.18164 3026.11621
3024.0 0.0003307 2067.95630 3036.93066
3154.0 0.0003171 2066.74951 3049.78442
3111.0 0.0003214 2065.56055 3055.01440
3044.0 0.0003285 2064.39038 3057.77808
3030.0 0.0003300 2063.23755 3058.40137
3100.0 0.0003226 2062.10376 3055.86255
3131.0 0.0003194 2060.98804 3053.31689
3112.0 0.0003213 2059.88989 3049.72314
3160.0 0.0003165 2058.81055 3045.43042
3146.0 0.0003179 2057.74902 3040.79663
3069.0 0.0003258 2056.70581 3036.19507
3141.0 0.0003184 2055.68042 3032.02515
3166.0 0.0003159 2054.67358 3028.73413
3151.0 0.0003174 2053.68433 3029.27100
3053.0 0.0003275 2052.71362 3029.22095
3031.0 0.0003299 2051.76074 3031.54761
3031.0 0.0003299 2050.82568 3020.67700
3134.0 0.0003191 2049.90894 3029.42017
3023.0 0.0003308 2049.00977 3041.98438
3174.0 0.0003151 2048.12866 3058.76758
3096.0 0.0003230 2047.26514 3080.10425
3230.0 0.0003096 2046.41968 3106.26392
3270.0 0.0003058 2045.59167 3137.43774
3253.0 0.0003074 2044.78162 3173.73413
3317.0 0.0003015 2043.98926 3215.16772
3514.0 0.0002846 2043.21411 3261.64917
3414.0 0.0002929 2042.45679 3312.97876
3663.0 0.0002730 2041.71667 3368.83960
3611.0 0.0002769 2040.99414 3428.78931
3766.0 0.0002655 2040.28857 3492.27441
3855.0 0.0002594 2039.60059 3558.64258
3957.0 0.0002527 2038.92981 3627.17529
3985.0 0.0002509 2038.27588 3697.11304
4056.0 0.0002465 2037.63916 3767.70313
4314.0 0.0002318 2037.01917 3838.21777
4254.0 0.0002351 2036.41614 3907.96460
4326.0 0.0002312 2035.82983 3976.27173
4222.0 0.0002369 2035.26038 4042.44019
4203.0 0.0002379 2034.70728 4105.69678
4446.0 0.0002249 2034.17078 4165.14648
4286.0 0.0002333 2033.65076 4219.74707
4339.0 0.0002305 2033.14685 4268.33594
4215.0 0.0002372 2032.65930 4309.69531
4325.0 0.0002312 2032.18762 4342.67725
4246.0 0.0002355 2031.73218 4367.52051
4227.0 0.0002366 2031.29248 4381.28271
4363.0 0.0002292 2030.86877 4387.30811
4160.0 0.0002404 2030.46033 4381.28369
4172.0 0.0002397 2030.06775 4361.96924
4295.0 0.0002328 2029.69067 4336.85498
4172.0 0.0002397 2029.32861 4307.24805
4124.0 0.0002425 2028.98193 4272.21387
3870.0 0.0002584 2028.65027 4232.96289
4027.0 0.0002483 2028.33362 4190.57910
3846.0 0.0002600 2028.03174 4146.03027
3799.0 0.0002632 2027.74451 4100.19580
3791.0 0.0002638 2027.47192 4054.51563
3755.0 0.0002663 2027.21375 4010.29028
3764.0 0.0002657 2026.96985 3965.90088
3861.0 0.0002590 2026.73999 3921.81934
3670.0 0.0002725 2026.52441 3883.27124
3724.0 0.0002685 2026.32239 3849.47217
3806.0 0.0002627 2026.13440 3821.33594
3685.0 0.0002714 2025.95972 3799.82715
3717.0 0.0002690 2025.79871 3785.77734
3689.0 0.0002711 2025.65100 3779.86963
3826.0 0.0002614 2025.51636 3782.61401
3869.0 0.0002585 2025.39453 3794.35205
3827.0 0.0002613 2025.28589 3815.25366
3945.0 0.0002535 2025.18970 3845.52637
3980.0 0.0002513 2025.10608 3884.55469
3934.0 0.0002542 2025.03491 3932.18896
4054.0 0.0002467 2024.97583 3987.86548
4176.0 0.0002395 2024.92883 4050.82031
4222.0 0.0002369 2024.89380 4120.05664
4320.0 0.0002315 2024.87036 4194.34375
4432.0 0.0002256 2024.85864 4272.18994
4536.0 0.0002205 2024.85828 4351.87109
4643.0 0.0002154 2024.86902 4431.43018
4572.0 0.0002187 2024.89087 4508.76221
4703.0 0.0002126 2024.92358 4581.71094
4800.0 0.0002083 2024.96704 4648.19775
4952.0 0.0002019 2025.02100 4706.40723
4931.0 0.0002028 2025.08533 4755.02539
4873.0 0.0002052 2025.15991 4792.97705
4959.0 0.0002017 2025.24438 4820.08496
5040.0 0.0001984 2025.33875 4836.64111
4934.0 0.0002027 2025.44275 4843.40430
4991.0 0.0002004 2025.55627 4841.43115
4897.0 0.0002042 2025.67896 4831.93359
4908.0 0.0002037 2025.81079 4816.11084
4935.0 0.0002026 2025.95154 4795.06299
4703.0 0.0002126 2026.10120 4769.77197
4862.0 0.0002057 2026.25916 4741.10742
4817.0 0.0002076 2026.42554 4709.84033
4746.0 0.0002107 2026.60010 4676.98730
4653.0 0.0002149 2026.78271 4643.31885
4693.0 0.0002131 2026.97314 4609.91553
4582.0 0.0002182 2027.17114 4577.88428
4488.0 0.0002228 2027.37634 4548.33984
4484.0 0.0002230 2027.58911 4522.34375
4311.0 0.0002320 2027.80872 4500.80615
4305.0 0.0002323 2028.03528 4484.43018
4307.0 0.0002322 2028.26843 4473.64111
4428.0 0.0002258 2028.50806 4468.57275
4352.0 0.0002298 2028.75391 4469.01709
4398.0 0.0002274 2029.00586 4477.88086
4232.0 0.0002363 2029.26379 4487.78467
4215.0 0.0002372 2029.52734 4501.44385
4247.0 0.0002355 2029.79639 4516.97949
4236.0 0.0002361 2030.07056 4532.83301
4215.0 0.0002372 2030.35010 4549.22607
4307.0 0.0002322 2030.63440 4564.22461
4419.0 0.0002263 2030.92358 4576.72070
4322.0 0.0002314 2031.21704 4585.74365
4281.0 0.0002336 2031.51477 4590.48877
4247.0 0.0002355 2031.81689 4590.33008
4236.0 0.0002361 2032.12268 4586.45508
4140.0 0.0002415 2032.43237 4576.90234
4235.0 0.0002361 2032.74561 4559.88623
4271.0 0.0002341 2033.06213 4537.07178
4126.0 0.0002424 2033.38171 4504.94336
4016.0 0.0002490 2033.70447 4469.82373
3942.0 0.0002537 2034.02979 4428.73828
4004.0 0.0002498 2034.35754 4381.60205
4073.0 0.0002455 2034.68799 4328.73438
3879.0 0.0002578 2035.02026 4270.49268
3739.0 0.0002675 2035.35486 4207.38428
3907.0 0.0002560 2035.69104 4140.05957
3823.0 0.0002616 2036.02893 4069.27441
3786.0 0.0002641 2036.36816 3996.65601
3771.0 0.0002652 2036.70837 3919.13477
3785.0 0.0002642 2037.04980 3842.94263
3649.0 0.0002740 2037.39209 3766.48682
3545.0 0.0002821 2037.73499 3690.41357
3541.0 0.0002824 2038.07837 3615.32349
3366.0 0.0002971 2038.42188 3541.58569
3332.0 0.0003001 2038.76550 3469.64746
3343.0 0.0002991 2039.10901 3399.84448
3203.0 0.0003122 2039.45215 3335.83911
3262.0 0.0003066 2039.79480 3271.16406
3131.0 0.0003194 2040.13684 3208.87109
3171.0 0.0003154 2040.47803 3150.12158
3150.0 0.0003175 2040.81812 3094.53735
3112.0 0.0003213 2041.15698 3042.25586
2993.0 0.0003341 2041.49438 2993.21606
3025.0 0.0003306 2041.83020 2947.47754
2895.0 0.0003454 2042.16431 2905.01147
2906.0 0.0003441 2042.49634 2865.76904
2919.0 0.0003426 2042.82629 2829.66943
2806.0 0.000356 2043.15393 2796.61816
2802.0 0.000357 2043.47900 2768.18774
2827.0 0.000354 2043.80164 2740.91895
2736.0 0.000365 2044.12122 2716.35229
2748.0 0.000364 2044.43799 2694.37378
2817.0 0.000355 2044.75146 2674.87329
2746.0 0.000364 2045.06152 2657.77588
2639.0 0.000379 2045.36829 2642.94482
2713.0 0.000369 2045.67114 2630.33691
2677.0 0.000374 2045.97034 2619.90063
2638.0 0.000379 2046.26538 2611.61450
2673.0 0.000374 2046.55640 2605.43701
2568.0 0.000389 2046.84302 2601.38403
2616.0 0.000382 2047.12500 2599.47583
2714.0 0.000368 2047.40247 2599.74658
2675.0 0.000374 2047.67517 2602.51343
2622.0 0.000381 2047.94287 2607.32007
2599.0 0.000385 2048.20532 2614.50806
2697.0 0.000371 2048.46265 2624.17212
2616.0 0.000382 2048.71460 2636.41895
2635.0 0.000380 2048.96118 2651.36621
2672.0 0.000374 2049.20166 2669.13110
2783.0 0.000359 2049.43652 2689.85205
2829.0 0.000353 2049.66528 2713.64282
2831.0 0.000353 2049.88794 2740.63550
2740.0 0.000365 2050.10425 2770.95044
2880.0 0.0003472 2050.31421 2804.69775
2859.0 0.0003498 2050.51758 2842.09985
2890.0 0.0003460 2050.71436 2882.96777
3060.0 0.0003268 2050.90454 2927.47534
2943.0 0.0003398 2051.08740 2975.62939
3035.0 0.0003295 2051.26318 3027.39233
3181.0 0.0003144 2051.43213 3082.67236
3136.0 0.0003189 2051.59351 3141.30835
3152.0 0.0003173 2051.74756 3207.12134
3339.0 0.0002995 2051.89380 3271.68970
3374.0 0.0002964 2052.03271 3338.57617
3368.0 0.0002969 2052.16357 3407.20020
3642.0 0.0002746 2052.28638 3476.82397
3619.0 0.0002763 2052.40161 3546.56226
3712.0 0.0002694 2052.50830 3615.37598
3815.0 0.0002621 2052.60693 3682.08765
3862.0 0.0002589 2052.69727 3745.42554
3848.0 0.0002599 2052.77930 3804.07886
4009.0 0.0002494 2052.85254 3856.78149
4022.0 0.0002486 2052.91724 3902.39502
4143.0 0.0002414 2052.97314 3942.03149
4107.0 0.0002435 2053.02026 3971.04614
4175.0 0.0002395 2053.05835 3991.16113
4177.0 0.0002394 2053.08765 4002.42603
4118.0 0.0002428 2053.10767 4005.17578
4254.0 0.0002351 2053.11841 3999.95703
3926.0 0.0002547 2053.12012 3987.44360
4012.0 0.0002493 2053.11230 3968.34839
4101.0 0.0002438 2053.09521 3943.36279
4006.0 0.0002496 2053.06860 3913.12744
3826.0 0.0002614 2053.03223 3878.22998
4026.0 0.0002484 2052.98633 3839.23853
3824.0 0.0002615 2052.93066 3796.92334
3908.0 0.0002559 2052.86523 3751.52271
3832.0 0.0002610 2052.78979 3703.93140
3779.0 0.0002646 2052.70459 3654.93262
3708.0 0.0002697 2052.60962 3605.38037
3599.0 0.0002779 2052.50439 3556.89844
3687.0 0.0002712 2052.38892 3508.93091
3565.0 0.0002805 2052.26367 3463.06958
3589.0 0.0002786 2052.12793 3420.11719
3476.0 0.0002877 2051.98218 3382.56885
3408.0 0.0002934 2051.82593 3347.50488
3348.0 0.0002987 2051.65967 3317.19702
3407.0 0.0002935 2051.48267 3292.15283
3302.0 0.0003028 2051.29565 3272.48755
3265.0 0.0003063 2051.09790 3258.51440
3317.0 0.0003015 2050.88989 3250.35718
3223.0 0.0003103 2050.67139 3248.06152
3251.0 0.0003076 2050.44214 3251.95532
3206.0 0.0003119 2050.20239 3261.19678
3220.0 0.0003106 2049.95215 3275.94800
3285.0 0.0003044 2049.69116 3295.92358
3360.0 0.0002976 2049.41943 3320.33301
3282.0 0.0003047 2049.13745 3349.54541
3204.0 0.0003121 2048.84473 3382.50391
3366.0 0.0002971 2048.54126 3418.49780
3314.0 0.0003018 2048.22729 3456.67432
3296.0 0.0003034 2047.90234 3496.04639
3284.0 0.0003045 2047.56689 3535.51196
3314.0 0.0003018 2047.22070 3573.87598
3400.0 0.0002941 2046.86389 3609.90234
3481.0 0.0002873 2046.49634 3643.68359
3491.0 0.0002865 2046.11816 3671.50977
3415.0 0.0002928 2045.72937 3691.30737
3409.0 0.0002933 2045.32971 3707.29248
3396.0 0.0002945 2044.91968 3716.62183
3484.0 0.0002870 2044.49878 3719.21533
3419.0 0.0002925 2044.06738 3715.23242
3433.0 0.0002913 2043.62524 3706.02661
3463.0 0.0002888 2043.17273 3690.16284
3373.0 0.0002965 2042.70947 3669.14307
3350.0 0.0002985 2042.23584 3643.48804
3394.0 0.0002946 2041.75183 3613.66650
3346.0 0.0002989 2041.25696 3580.73901
3338.0 0.0002996 2040.75208 3543.79077
3335.0 0.0002999 2040.23645 3503.83276
3291.0 0.0003039 2039.71069 3461.27466
3145.0 0.0003180 2039.17444 3416.57886
3191.0 0.0003134 2038.62805 3370.28882
3082.0 0.0003245 2038.07141 3323.00928
3146.0 0.0003179 2037.50452 3275.74341
3173.0 0.0003152 2036.92749 3228.59351
3069.0 0.0003258 2036.34021 3182.29248
3117.0 0.0003208 2035.74304 3137.58008
3159.0 0.0003166 2035.13574 3094.99219
3029.0 0.0003301 2034.51880 3054.99341
3075.0 0.0003252 2033.89160 3017.96753
3034.0 0.0003296 2033.25488 2984.22485
2946.0 0.0003394 2032.60852 2954.00000
2991.0 0.0003343 2031.95215 2927.47266
2936.0 0.0003406 2031.28625 2904.77393
3003.0 0.0003330 2030.61072 2885.98999
2961.0 0.0003377 2029.92590 2871.17188
3016.0 0.0003316 2029.23145 2860.34595
2937.0 0.0003405 2028.52783 2853.51709
2994.0 0.0003340 2027.81458 2850.67285
2950.0 0.0003390 2027.09265 2851.77832
3000.0 0.0003333 2026.36157 2856.79443
2839.0 0.000352 2025.62109 2865.66431
3039.0 0.0003291 2024.87195 2878.32520
3052.0 0.0003277 2024.11353 2894.70898
3084.0 0.0003243 2023.34692 2914.73950
3035.0 0.0003295 2022.57117 2938.34155
2996.0 0.0003338 2021.78699 2965.44043
3064.0 0.0003264 2020.99451 2995.96338
3116.0 0.0003209 2020.19324 3029.84521
3215.0 0.0003110 2019.38391 3067.02539
3097.0 0.0003229 2018.56604 3107.45044
3187.0 0.0003138 2017.74048 3151.07275
3242.0 0.0003085 2016.90649 3197.84521
3230.0 0.0003096 2016.06482 3247.94580
3324.0 0.0003008 2015.21497 3303.07593
3495.0 0.0002861 2014.35791 3358.87598
3367.0 0.0002970 2013.49316 3416.48608
3400.0 0.0002941 2012.62048 3477.47290
3419.0 0.0002925 2011.74072 3540.56152
3441.0 0.0002906 2010.85339 3605.27515
3579.0 0.0002794 2009.95911 3671.00757
3548.0 0.0002818 2009.05750 3737.02808
3581.0 0.0002793 2008.14929 3802.49390
3773.0 0.0002650 2007.23389 3866.49585
3827.0 0.0002613 2006.31201 3928.09888
3768.0 0.0002654 2005.38354 3986.53638
3842.0 0.0002603 2004.44824 4040.81079
3872.0 0.0002583 2003.50684 4083.65283
3984.0 0.0002510 2002.55896 4128.40527
3953.0 0.0002530 2001.60510 4168.06641
4033.0 0.0002480 2000.64490 4203.61035
4137.0 0.0002417 1999.67920 4233.51465
4179.0 0.0002393 1998.70776 4258.95361
4200.0 0.0002381 1997.73010 4280.21191
4138.0 0.0002417 1996.74756 4297.49121
4189.0 0.0002387 1995.75903 4310.96631
4330.0 0.0002309 1994.76550 4320.47900
4379.0 0.0002284 1993.76672 4326.05029
4362.0 0.0002293 1992.76306 4327.63281
4375.0 0.0002286 1991.75427 4325.25879
4326.0 0.0002312 1990.74097 4319.12939
4339.0 0.0002305 1989.72314 4309.62256
4484.0 0.0002230 1988.70032 4297.74365
4430.0 0.0002257 1987.67346 4283.34521
4460.0 0.0002242 1986.64197 4267.66113
4382.0 0.0002282 1985.60693 4251.51025
4343.0 0.0002303 1984.56726 4235.64160
4388.0 0.0002279 1983.52429 4220.68652
4389.0 0.0002278 1982.47717 4207.14697
4247.0 0.0002355 1981.42688 4195.23486
4203.0 0.0002379 1980.37305 4185.09082
4181.0 0.0002392 1979.31555 4176.64551
4266.0 0.0002344 1978.25513 4169.67725
4196.0 0.0002383 1977.19153 4163.82275
4162.0 0.0002403 1976.12512 4159.57910
4331.0 0.0002309 1975.05566 4154.41113
4091.0 0.0002444 1973.98401 4148.62012
4242.0 0.0002357 1972.90967 4141.50098
4162.0 0.0002403 1971.83264 4132.34473
4160.0 0.0002404 1970.75378 4120.50977
4151.0 0.0002409 1969.67236 4105.46387
4198.0 0.0002382 1968.58948 4086.84741
4036.0 0.0002478 1967.50415 4064.48950
4148.0 0.0002411 1966.41760 4038.42993
4211.0 0.0002375 1965.32910 4008.87476
4138.0 0.0002417 1964.23950 3976.16382
4054.0 0.0002467 1963.14868 3941.21509
3937.0 0.0002540 1962.05627 3903.47363
3766.0 0.0002655 1960.96313 3863.85254
3915.0 0.0002554 1959.86877 3822.72949
3899.0 0.0002565 1958.77393 3780.43896
3847.0 0.0002599 1957.67810 3737.28809
3665.0 0.0002729 1956.58228 3693.58032
3748.0 0.0002668 1955.48547 3649.85718
3712.0 0.0002694 1954.38892 3606.08350
3620.0 0.0002762 1953.29224 3562.90942
3597.0 0.0002780 1952.19507 3520.83423
3583.0 0.0002791 1951.09863 3480.39795
3544.0 0.0002822 1950.00183 3442.16748
3528.0 0.0002834 1948.90588 3404.80615
3487.0 0.0002868 1947.81018 3372.61938
3503.0 0.0002855 1946.71545 3344.17017
3420.0 0.0002924 1945.62146 3319.86523
3495.0 0.0002861 1944.52795 3300.04395
3379.0 0.0002959 1943.43591 3284.97852
3430.0 0.0002915 1942.34460 3274.87939
3438.0 0.0002909 1941.25488 3271.42944
3346.0 0.0002989 1940.16614 3271.70923
3374.0 0.0002964 1939.07947 3277.28979
3284.0 0.0003045 1937.99390 3289.27026
3405.0 0.0002937 1936.91052 3303.61597
3448.0 0.0002900 1935.82898 3325.00806
3488.0 0.0002867 1934.74902 3351.79517
3444.0 0.0002904 1933.67163 3382.94775
3479.0 0.0002874 1932.59583 3418.48120
3567.0 0.0002803 1931.52295 3457.92285
3614.0 0.0002767 1930.45203 3500.66333
3696.0 0.0002706 1929.38403 3545.85254
3534.0 0.0002830 1928.31836 3592.81958
3822.0 0.0002616 1927.25586 3641.14502
3799.0 0.0002632 1926.19604 3688.26660
3796.0 0.0002634 1925.13904 3731.86035
3980.0 0.0002513 1924.08533 3774.77954
3951.0 0.0002531 1923.03442 3812.89673
4122.0 0.0002426 1921.98730 3845.61987
4105.0 0.0002436 1920.94299 3872.02148
4153.0 0.0002408 1919.90271 3891.46191
4224.0 0.0002367 1918.86597 3903.62720
4239.0 0.0002359 1917.83240 3908.53491
4160.0 0.0002404 1916.80310 3906.40308
4166.0 0.0002400 1915.77722 3897.96533
4108.0 0.0002434 1914.75574 3883.79492
4019.0 0.0002488 1913.73792 3864.70386
4009.0 0.0002494 1912.72449 3841.18604
3939.0 0.0002539 1911.71497 3813.94067
4008.0 0.0002495 1910.71021 3783.49316
3876.0 0.0002580 1909.70972 3750.30322
3843.0 0.0002602 1908.71326 3714.79883
3797.0 0.0002634 1907.72192 3672.47583
3746.0 0.0002670 1906.73462 3633.77734
3630.0 0.0002755 1905.75256 3594.26245
3678.0 0.0002719 1904.77478 3554.56006
3625.0 0.0002759 1903.80225 3515.34106
3498.0 0.0002859 1902.83423 3477.28906
3512.0 0.0002847 1901.87158 3441.05127
3423.0 0.0002921 1900.91406 3407.55322
3313.0 0.0003018 1899.96130 3376.57251
3384.0 0.0002955 1899.01392 3348.79932
3346.0 0.0002989 1898.07166 3324.43188
3240.0 0.0003086 1897.13489 3303.51978
3265.0 0.0003063 1896.20313 3283.50659
3266.0 0.0003062 1895.27734 3269.08716
3276.0 0.0003053 1894.35681 3257.40210
3269.0 0.0003059 1893.44153 3247.97290
3230.0 0.0003096 1892.53210 3240.23804
3344.0 0.0002990 1891.62805 3233.59839
3206.0 0.0003119 1890.72998 3227.46387
3370.0 0.0002967 1889.83740 3221.30664
3224.0 0.0003102 1888.95081 3214.70386
3402.0 0.0002939 1888.06970 3207.36963
3250.0 0.0003077 1887.19470 3199.17480
3211.0 0.0003114 1886.32568 3190.13232
3261.0 0.0003067 1885.46228 3180.37207
3156.0 0.0003169 1884.60498 3170.09766
3216.0 0.0003109 1883.75354 3159.54395
3115.0 0.0003210 1882.90820 3148.93896
3237.0 0.0003089 1882.06873 3138.47510
3267.0 0.0003061 1881.23572 3128.29980
3224.0 0.0003102 1880.40833 3118.51855
3143.0 0.0003182 1879.58740 3109.21143
3227.0 0.0003099 1878.77258 3100.44995
3161.0 0.0003164 1877.96350 3092.31958
3059.0 0.0003269 1877.16101 3084.92310
3083.0 0.0003244 1876.36438 3078.65210
3110.0 0.0003215 1875.57410 3073.12451
3139.0 0.0003186 1874.78992 3068.72974
3190.0 0.0003135 1874.01208 3065.57471
3077.0 0.0003250 1873.24036 3063.71387
3136.0 0.0003189 1872.47473 3063.13940
3089.0 0.0003237 1871.71545 3063.76587
3153.0 0.0003172 1870.96216 3065.42993
3123.0 0.0003202 1870.21533 3066.72046
3078.0 0.0003249 1869.47437 3069.74219
3070.0 0.0003257 1868.73987 3070.68335
3083.0 0.0003244 1868.01123 3073.88306
3080.0 0.0003247 1867.28906 3077.62598
3216.0 0.0003109 1866.57312 3079.92651
3227.0 0.0003099 1865.86292 3081.53638
3050.0 0.0003279 1865.15918 3082.41504
3262.0 0.0003066 1864.46118 3082.61426
3111.0 0.0003214 1863.76965 3082.26367
3055.0 0.0003273 1863.08374 3081.54858
3137.0 0.0003188 1862.40405 3080.68750
3144.0 0.0003181 1861.73047 3079.31714
3118.0 0.0003207 1861.06262 3078.83594
3035.0 0.0003295 1860.40100 3078.83740
3106.0 0.0003220 1859.74500 3079.48169
3198.0 0.0003127 1859.09509 3080.90625
3118.0 0.0003207 1858.45068 3083.60913
3075.0 0.0003252 1857.81238 3086.95044
3039.0 0.0003291 1857.17957 3092.22339
3089.0 0.0003237 1856.55273 3097.86572
3139.0 0.0003186 1855.93140 3104.78979
3057.0 0.0003271 1855.31543 3113.05884
3101.0 0.0003225 1854.70544 3122.70410
3156.0 0.0003169 1854.10059 3133.70703
3045.0 0.0003284 1853.50159 3146.00122
3000.0 0.0003333 1852.90759 3159.46436
3062.0 0.0003266 1852.31921 3173.92871
3007.0 0.0003326 1851.73584 3189.19507
3060.0 0.0003268 1851.15808 3207.50610
3124.0 0.0003201 1850.58533 3223.76660
2943.0 0.0003398 1850.01758 3240.22705
3107.0 0.0003219 1849.45496 3257.16284
3114.0 0.0003211 1848.89734 3273.64478
3091.0 0.0003235 1848.34460 3290.13965
3101.0 0.0003225 1847.79651 3306.35815
3206.0 0.0003119 1847.25342 3322.36792
3055.0 0.0003273 1846.71484 3338.09009
3165.0 0.0003160 1846.18115 3353.39917
3112.0 0.0003213 1845.65210 3368.11279
3118.0 0.0003207 1845.12708 3382.00513
3071.0 0.0003256 1844.60669 3394.68213
3093.0 0.0003233 1844.09058 3407.01245
3077.0 0.0003250 1843.57861 3416.11987
3050.0 0.0003279 1843.07092 3423.46777
3057.0 0.0003271 1842.56714 3427.17383
3095.0 0.0003231 1842.06763 3427.52368
3071.0 0.0003256 1841.57166 3424.22852
3032.0 0.0003298 1841.07983 3416.92749
3141.0 0.0003184 1840.59143 3405.57178
3116.0 0.0003209 1840.10681 3390.20190
3030.0 0.0003300 1839.62561 3370.99927
3111.0 0.0003214 1839.14795 3348.27783
2943.0 0.0003398 1838.67346 3322.43604
2971.0 0.0003366 1838.20239 3293.92480
2955.0 0.0003384 1837.73450 3263.20947
2872.0 0.0003482 1837.26953 3230.72632
3002.0 0.0003331 1836.80774 3197.22876
2821.0 0.000354 1836.34851 3162.35034
2868.0 0.0003487 1835.89233 3126.74390
2884.0 0.0003467 1835.43848 3090.67944
2840.0 0.000352 1834.98755 3054.42236
2777.0 0.000360 1834.53882 3018.24146
2809.0 0.000356 1834.09265 2982.43823
2864.0 0.0003492 1833.64844 2948.42554
2811.0 0.000356 1833.20642 2914.38940
2838.0 0.000352 1832.76660 2881.77563
2777.0 0.000360 1832.32861 2850.94824
2827.0 0.000354 1831.89246 2822.25952
2775.0 0.000360 1831.45789 2796.02197
2757.0 0.000363 1831.02515 2774.26538
2700.0 0.000370 1830.59399 2753.72192
2696.0 0.000371 1830.16382 2736.30151
2647.0 0.000378 1829.73511 2722.12012
2694.0 0.000371 1829.30762 2711.24292
2717.0 0.000368 1828.88098 2703.68652
2698.0 0.000371 1828.45532 2699.41187
2684.0 0.000373 1828.03064 2698.87549
2716.0 0.000368 1827.60645 2699.78076
2782.0 0.000359 1827.18311 2704.67090
2736.0 0.000365 1826.76025 2712.21948
2714.0 0.000368 1826.33752 2722.15430
2924.0 0.0003420 1825.91528 2734.15991
2688.0 0.000372 1825.49292 2748.75122
2930.0 0.0003413 1825.07068 2763.80957
2785.0 0.000359 1824.64844 2780.51953
2942.0 0.0003399 1824.22595 2797.05640
2913.0 0.0003433 1823.80322 2813.75537
2932.0 0.0003411 1823.37988 2830.28271
2914.0 0.0003432 1822.95618 2846.35840
2990.0 0.0003344 1822.53162 2858.90869
3031.0 0.0003299 1822.10657 2873.50049
2977.0 0.0003359 1821.68030 2887.15112
3025.0 0.0003306 1821.25330 2899.79565
2994.0 0.0003340 1820.82495 2911.40454
2977.0 0.0003359 1820.39539 2922.12231
3070.0 0.0003257 1819.96472 2931.67212
3082.0 0.0003245 1819.53223 2940.23730
3025.0 0.0003306 1819.09863 2948.25391
2968.0 0.0003369 1818.66296 2955.11353
3077.0 0.0003250 1818.22571 2961.31421
3180.0 0.0003145 1817.78638 2967.04004
3122.0 0.0003203 1817.34521 2972.50806
3099.0 0.0003227 1816.90173 2977.95776
3109.0 0.0003216 1816.45630 2984.23535
2968.0 0.0003369 1816.00830 2990.92529
3107.0 0.0003219 1815.55798 2997.82397
3039.0 0.0003291 1815.10498 3005.63867
3088.0 0.0003238 1814.64917 3014.60815
3097.0 0.0003229 1814.19092 3024.69336
3136.0 0.0003189 1813.72949 3036.02075
3056.0 0.0003272 1813.26538 3048.58301
3128.0 0.0003197 1812.79785 3062.30737
3208.0 0.0003117 1812.32739 3077.05054
3145.0 0.0003180 1811.85352 3092.59595
3054.0 0.0003274 1811.37634 3108.87036
3258.0 0.0003069 1810.89563 3125.09424
3206.0 0.0003119 1810.41125 3141.37061
3259.0 0.0003068 1809.92322 3156.67993
3256.0 0.0003071 1809.43127 3171.14258
3227.0 0.0003099 1808.93567 3183.84253
3286.0 0.0003043 1808.43628 3194.70190
3339.0 0.0002995 1807.93237 3203.47925
3357.0 0.0002979 1807.42456 3210.04517
3269.0 0.0003059 1806.91223 3214.41089
3333.0 0.0003000 1806.39587 3216.60303
3244.0 0.0003083 1805.87476 3216.82422
3168.0 0.0003157 1805.34937 3215.29736
3235.0 0.0003091 1804.81934 3212.37305
3329.0 0.0003004 1804.28442 3205.69751
3286.0 0.0003043 1803.74512 3200.34326
3197.0 0.0003128 1803.20056 3194.07520
3213.0 0.0003112 1802.65137 3187.10522
3163.0 0.0003162 1802.09692 3179.28687
3301.0 0.0003029 1801.53760 3170.75854
3168.0 0.0003157 1800.97278 3161.52979
3124.0 0.0003201 1800.40308 3151.59888
3066.0 0.0003262 1799.82776 3140.96802
3075.0 0.0003252 1799.24731 3129.58496
3099.0 0.0003227 1798.66150 3117.42773
3098.0 0.0003228 1798.06970 3105.82544
3033.0 0.0003297 1797.47278 3083.26465
3127.0 0.0003198 1796.86987 3068.40771
3045.0 0.0003284 1796.26160 3052.38354
3135.0 0.0003190 1795.64722 3035.05542
2996.0 0.0003338 1795.02734 3016.35522
2964.0 0.0003374 1794.40137 2996.08667
3030.0 0.0003300 1793.76953 2974.26929
3001.0 0.0003332 1793.13159 2950.92261
3006.0 0.0003327 1792.48767 2926.13599
2847.0 0.000351 1791.83765 2900.04468
2866.0 0.0003489 1791.18127 2872.82568
2926.0 0.0003418 1790.51917 2842.63232
2888.0 0.0003463 1789.85034 2814.44067
2834.0 0.000353 1789.17578 2784.98779
2757.0 0.000363 1788.49475 2755.09595
2797.0 0.000358 1787.80713 2724.88306
2740.0 0.000365 1787.11328 2694.44531
2690.0 0.000372 1786.41296 2664.51733
2609.0 0.000383 1785.70618 2633.88867
2668.0 0.000375 1784.99292 2604.22583
2556.0 0.000391 1784.27332 2573.82202
2551.0 0.000392 1783.54688 2543.72852
2564.0 0.000390 1782.81433 2514.10938
2530.0 0.000395 1782.07520 2485.85327
2436.0 0.000411 1781.32898 2457.71606
2488.0 0.000402 1780.57678 2430.99438
2457.0 0.000407 1779.81738 2405.01587
2394.0 0.000418 1779.05188 2380.32886
2441.0 0.000410 1778.27930 2357.04346
2372.0 0.000422 1777.50024 2335.24414
2312.0 0.000433 1776.71472 2316.84692
2322.0 0.000431 1775.92224 2298.18384
2333.0 0.000429 1775.12354 2281.56421
2287.0 0.000437 1774.31775 2266.07251
2211.0 0.000452 1773.50562 2252.13501
2210.0 0.000452 1772.68652 2239.70996
2296.0 0.000436 1771.86133 2228.87622
2252.0 0.000444 1771.02893 2219.65942
2219.0 0.000451 1770.19043 2211.40723
2219.0 0.000451 1769.34521 2204.59595
2154.0 0.000464 1768.49316 2198.72070
2211.0 0.000452 1767.63501 2193.92944
2213.0 0.000452 1766.76978 2190.06885
2196.0 0.000455 1765.89856 2187.84448
2248.0 0.000445 1765.02051 2187.25610
2214.0 0.000452 1764.13635 2185.82666
2179.0 0.000459 1763.24536 2185.08887
2197.0 0.000455 1762.34851 2185.02441
2131.0 0.000469 1761.44507 2186.46021
2221.0 0.000450 1760.53528 2187.83984
2206.0 0.000453 1759.61938 2189.89917
2152.0 0.000465 1758.69690 2192.76343
2186.0 0.000457 1757.76868 2196.50928
2190.0 0.000457 1756.83398 2201.21631
2159.0 0.000463 1755.89368 2206.98950
2236.0 0.000447 1754.94727 2213.88843
2134.0 0.000469 1753.99438 2222.02002
2232.0 0.000448 1753.03625 2232.27100
2296.0 0.000436 1752.07166 2243.16357
2274.0 0.000440 1751.10156 2255.57764
2213.0 0.000452 1750.12573 2269.61963
2232.0 0.000448 1749.14417 2285.80176
2326.0 0.000430 1748.15710 2303.41040
2293.0 0.000436 1747.16455 2322.95068
2342.0 0.000427 1746.16675 2344.51587
2368.0 0.000422 1745.16309 2368.18701
2364.0 0.000423 1744.15454 2394.02808
2289.0 0.000437 1743.14038 2422.08276
2368.0 0.000422 1742.12146 2452.36523
2374.0 0.000421 1741.09717 2484.85620
2484.0 0.000403 1740.06799 2519.50586
2457.0 0.000407 1739.03394 2556.21069
2565.0 0.000390 1737.99524 2594.82251
2522.0 0.000397 1736.95190 2635.13403
2585.0 0.000387 1735.90356 2676.87598
2576.0 0.000388 1734.85120 2719.71338
2685.0 0.000372 1733.79382 2763.24146
2711.0 0.000369 1732.73267 2806.99146
2761.0 0.000362 1731.66675 2850.44434
2879.0 0.0003473 1730.59729 2893.03760
2914.0 0.0003432 1729.52356 2934.20093
2973.0 0.0003364 1728.44580 2973.37646
3077.0 0.0003250 1727.36438 3010.05835
3050.0 0.0003279 1726.27893 3043.81323
3113.0 0.0003212 1725.19031 3074.31177
3208.0 0.0003117 1724.09790 3101.33228
3146.0 0.0003179 1723.00244 3125.87451
3188.0 0.0003137 1721.90332 3145.70532
3348.0 0.0002987 1720.80151 3161.79077
3332.0 0.0003001 1719.69666 3174.61963
3376.0 0.0002962 1718.58862 3184.12720
3285.0 0.0003044 1717.47803 3190.45288
3308.0 0.0003023 1716.36462 3193.74146
3191.0 0.0003134 1715.24890 3192.36670
3247.0 0.0003080 1714.13037 3190.01025
3257.0 0.0003070 1713.01025 3185.03955
3303.0 0.0003028 1711.88733 3177.61157
3192.0 0.0003133 1710.76294 3167.98364
3331.0 0.0003002 1709.63672 3156.14478
3279.0 0.0003050 1708.50818 3142.36572
3134.0 0.0003191 1707.37854 3127.28076
3106.0 0.0003220 1706.24695 3110.14966
3199.0 0.0003126 1705.11438 3091.58643
3225.0 0.0003101 1703.98047 3071.75098
3308.0 0.0003023 1702.84570 3050.80420
3220.0 0.0003106 1701.71008 3028.91821
3193.0 0.0003132 1700.57324 3005.41675
3129.0 0.0003196 1699.43628 2982.27783
3268.0 0.0003060 1698.29822 2958.87207
3034.0 0.0003296 1697.16040 2935.47876
3003.0 0.0003330 1696.02185 2912.36426
2968.0 0.0003369 1694.88379 2889.88721
2891.0 0.0003459 1693.74524 2868.19971
2917.0 0.0003428 1692.60730 2847.57104
2868.0 0.0003487 1691.46997 2828.18677
2815.0 0.000355 1690.33252 2810.18066
2736.0 0.000365 1689.19641 2793.65063
2799.0 0.000357 1688.06042 2778.65186
2767.0 0.000361 1686.92615 2763.91235
2703.0 0.000370 1685.79224 2752.06787
2804.0 0.000357 1684.66028 2741.81177
2728.0 0.000367 1683.52917 2733.15112
2740.0 0.000365 1682.40027 2726.09985
2686.0 0.000372 1681.27283 2720.25000
2662.0 0.000376 1680.14709 2716.43677
2594.0 0.000386 1679.02356 2713.97974
2644.0 0.000378 1677.90186 2713.39673
2633.0 0.000380 1676.78308 2714.39697
2664.0 0.000375 1675.66626 2716.94507
2617.0 0.000382 1674.55249 2721.00171
2537.0 0.000394 1673.44165 2725.67065
2580.0 0.000388 1672.33313 2732.64966
2594.0 0.000386 1671.22803 2741.06250
2556.0 0.000391 1670.12610 2750.91626
2571.0 0.000389 1669.02771 2762.23877
2546.0 0.000393 1667.93274 2775.06372
2576.0 0.000388 1666.84155 2789.43896
2604.0 0.000384 1665.75391 2805.39893
2726.0 0.000367 1664.67090 2820.02173
2729.0 0.000366 1663.59192 2839.20190
2728.0 0.000367 1662.51672 2859.92139
2754.0 0.000363 1661.44653 2882.08374
2846.0 0.000351 1660.38049 2905.54517
2802.0 0.000357 1659.31946 2930.11206
2844.0 0.000352 1658.26318 2955.54102
2919.0 0.0003426 1657.21216 2981.54614
2947.0 0.0003393 1656.16602 3007.80396
2931.0 0.0003412 1655.12549 3033.95874
3021.0 0.0003310 1654.09058 3059.63330
3100.0 0.0003226 1653.06079 3084.44336
3169.0 0.0003156 1652.03723 3108.01440
3197.0 0.0003128 1651.01917 3130.12866
3219.0 0.0003107 1650.00757 3150.19165
3201.0 0.0003124 1649.00171 3168.07422
3293.0 0.0003037 1648.00256 3183.83032
3403.0 0.0002939 1647.00977 3196.80029
3256.0 0.0003071 1646.02332 3207.17188
3330.0 0.0003003 1645.04407 3216.61572
3243.0 0.0003084 1644.07117 3221.84619
3281.0 0.0003048 1643.10571 3224.75977
3238.0 0.0003088 1642.14685 3225.21826
3238.0 0.0003088 1641.19580 3223.50708
3292.0 0.0003038 1640.25171 3219.78809
3218.0 0.0003108 1639.31555 3214.21802
3263.0 0.0003065 1638.38672 3207.21045
3193.0 0.0003132 1637.46570 3198.43774
3141.0 0.0003184 1636.55261 3188.15015
3277.0 0.0003052 1635.64722 3176.53296
3183.0 0.0003142 1634.75037 3164.05054
3200.0 0.0003125 1633.86133 3150.14331
3259.0 0.0003068 1632.98120 3135.30127
3164.0 0.0003161 1632.10889 3120.53638
3070.0 0.0003257 1631.24573 3104.38770
3065.0 0.0003263 1630.39111 3087.98267
3105.0 0.0003221 1629.54492 3071.43848
3054.0 0.0003274 1628.70789 3055.09253
3003.0 0.0003330 1627.87976 3039.20801
2993.0 0.0003341 1627.06079 3024.03296
3022.0 0.0003309 1626.25098 3009.91724
3011.0 0.0003321 1625.45044 2997.73193
2904.0 0.0003444 1624.65955 2985.82129
2890.0 0.0003460 1623.87769 2975.20508
3026.0 0.0003305 1623.10571 2966.00635
2910.0 0.0003436 1622.34314 2957.97266
2973.0 0.0003364 1621.59058 2950.25244
2927.0 0.0003416 1620.84753 2944.48511
2964.0 0.0003374 1620.11462 2939.63867
2934.0 0.0003408 1619.39160 2935.55005
2895.0 0.0003454 1618.67859 2932.05298
2942.0 0.0003399 1617.97595 2928.92554
2902.0 0.0003446 1617.28320 2926.18335
3021.0 0.0003310 1616.60107 2923.66016
2916.0 0.0003429 1615.92883 2921.30591
2786.0 0.000359 1615.26746 2919.60767
2896.0 0.0003453 1614.61609 2917.65430
2956.0 0.0003383 1613.97571 2916.01172
2912.0 0.0003434 1613.34546 2914.35571
2945.0 0.0003396 1612.72620 2913.69629
2942.0 0.0003399 1612.11743 2913.71948
3015.0 0.0003317 1611.51929 2914.54346
2982.0 0.0003353 1610.93213 2916.26685
2972.0 0.0003365 1610.35559 2918.96973
2957.0 0.0003382 1609.79016 2922.09814
2984.0 0.0003351 1609.23523 2926.92603
2980.0 0.0003356 1608.69165 2932.86816
2961.0 0.0003377 1608.15881 2939.95117
2973.0 0.0003364 1607.63696 2948.19336
3007.0 0.0003326 1607.12610 2957.60986
3076.0 0.0003251 1606.62634 2968.20728
2941.0 0.0003400 1606.13757 2979.98071
3013.0 0.0003319 1605.65967 2993.69849
3087.0 0.0003239 1605.19324 3007.78760
3045.0 0.0003284 1604.73755 3022.99146
2990.0 0.0003344 1604.29321 3039.28052
3213.0 0.0003112 1603.86011 3056.63062
3090.0 0.0003236 1603.43774 3075.02173
3085.0 0.0003241 1603.02673 3094.44336
3146.0 0.0003179 1602.62659 3114.87378
3282.0 0.0003047 1602.23767 3136.28687
3090.0 0.0003236 1601.85986 3158.62427
3221.0 0.0003105 1601.49292 3181.50317
3247.0 0.0003080 1601.13733 3205.36108
3341.0 0.0002993 1600.79260 3229.72363
3350.0 0.0002985 1600.45898 3254.36597
3356.0 0.0002980 1600.13623 3279.43579
3424.0 0.0002921 1599.82458 3303.91748
3477.0 0.0002876 1599.52368 3327.98608
3587.0 0.0002788 1599.23376 3351.26782
3516.0 0.0002844 1598.95471 3374.08228
3521.0 0.0002840 1598.68640 3396.18018
3483.0 0.0002871 1598.42896 3417.57813
3633.0 0.0002753 1598.18213 3438.32324
3555.0 0.0002813 1597.94617 3458.46484
3593.0 0.0002783 1597.72070 3477.26880
3496.0 0.0002860 1597.50586 3496.29761
3419.0 0.0002925 1597.30151 3514.70874
3558.0 0.0002811 1597.10767 3532.40747
3523.0 0.0002838 1596.92407 3549.26709
3484.0 0.0002870 1596.75098 3565.15332
3450.0 0.0002899 1596.58801 3579.95020
3517.0 0.0002843 1596.43518 3592.67407
3544.0 0.0002822 1596.29260 3605.11572
3573.0 0.0002799 1596.15991 3616.39136
3547.0 0.0002819 1596.03735 3626.56445
3613.0 0.0002768 1595.92444 3635.71558
3568.0 0.0002803 1595.82153 3643.91455
3611.0 0.0002769 1595.72815 3651.19165
3482.0 0.0002872 1595.64453 3658.08252
3617.0 0.0002765 1595.57019 3663.36816
3555.0 0.0002813 1595.50537 3667.44971
3517.0 0.0002843 1595.44983 3670.11182
3643.0 0.0002745 1595.40356 3671.12524
3510.0 0.0002849 1595.36621 3670.32739
3648.0 0.0002741 1595.33801 3667.37549
3633.0 0.0002753 1595.31873 3662.19019
3635.0 0.0002751 1595.30811 3654.85034
3607.0 0.0002772 1595.30615 3645.03662
3707.0 0.0002698 1595.31274 3632.96899
3572.0 0.0002800 1595.32776 3618.76709
3457.0 0.0002893 1595.35095 3602.59839
3503.0 0.0002855 1595.38245 3584.65820
3498.0 0.0002859 1595.42188 3565.42896
3542.0 0.0002823 1595.46936 3545.05786
3440.0 0.0002907 1595.52441 3523.02661
3492.0 0.0002864 1595.58728 3499.95605
3450.0 0.0002899 1595.65747 3475.99634
3452.0 0.0002897 1595.73511 3451.28198
3365.0 0.0002972 1595.81995 3425.81470
3360.0 0.0002976 1595.91199 3399.66870
3360.0 0.0002976 1596.01086 3372.93335
3241.0 0.0003085 1596.11658 3345.44824
3331.0 0.0003002 1596.22876 3317.26343
3231.0 0.0003095 1596.34741 3288.34717
3215.0 0.0003110 1596.47253 3258.66455
3207.0 0.0003118 1596.60376 3228.18579
3153.0 0.0003172 1596.74109 3196.90210
3210.0 0.0003115 1596.88428 3164.82886
3134.0 0.0003191 1597.03320 3132.26245
3071.0 0.0003256 1597.18750 3098.79297
3022.0 0.0003309 1597.34729 3064.76465
3108.0 0.0003218 1597.51221 3030.33472
2975.0 0.0003361 1597.68237 2995.67285
3033.0 0.0003297 1597.85706 2960.96582
3005.0 0.0003328 1598.03674 2926.40796
2867.0 0.0003488 1598.22083 2892.19141
2825.0 0.000354 1598.40930 2858.74561
2807.0 0.000356 1598.60205 2826.71265
2777.0 0.000360 1598.79871 2794.54272
2788.0 0.000359 1598.99927 2764.09424
2734.0 0.000366 1599.20349 2733.96143
2687.0 0.000372 1599.41113 2705.86792
2670.0 0.000375 1599.62195 2678.18213
2641.0 0.000379 1599.83630 2651.85620
2598.0 0.000385 1600.05322 2626.97729
2592.0 0.000386 1600.27319 2603.63843
2534.0 0.000395 1600.49548 2581.92749
2546.0 0.000393 1600.72021 2561.92969
2621.0 0.000382 1600.94727 2543.72388
2533.0 0.000395 1601.17639 2527.37207
2466.0 0.000406 1601.40723 2513.04517
2494.0 0.000401 1601.63977 2500.99927
2448.0 0.000408 1601.87390 2490.38403
2517.0 0.000397 1602.10913 2482.07983
2478.0 0.000404 1602.34570 2475.12378
2480.0 0.000403 1602.58289 2470.26050
2406.0 0.000416 1602.82104 2466.47290
2361.0 0.000424 1603.05969 2463.98291
2444.0 0.000409 1603.29871 2462.54541
2375.0 0.000421 1603.53796 2461.87695
2367.0 0.000422 1603.77710 2461.67163
2437.0 0.000410 1604.01611 2461.60156
2410.0 0.000415 1604.25476 2461.33984
2388.0 0.000419 1604.49280 2460.57422
2427.0 0.000412 1604.73010 2458.14429
2410.0 0.000415 1604.96631 2455.58887
2402.0 0.000416 1605.20166 2452.81616
2291.0 0.000436 1605.43555 2447.79199
2376.0 0.000421 1605.66797 2441.46631
2264.0 0.000442 1605.89880 2433.78247
2318.0 0.000431 1606.12781 2424.82715
2390.0 0.000418 1606.35474 2414.67700
2448.0 0.000408 1606.57935 2403.41504
2364.0 0.000423 1606.80176 2391.12744
2510.0 0.000398 1607.02136 2377.88184
2211.0 0.000452 1607.23853 2363.74341
2389.0 0.000419 1607.45239 2348.75659
2284.0 0.000438 1607.66345 2331.46240
2315.0 0.000432 1607.87109 2314.94507
2290.0 0.000437 1608.07544 2297.75000
2335.0 0.000428 1608.27612 2280.44458
2221.0 0.000450 1608.47302 2262.17798
2151.0 0.000465 1608.66602 2243.56128
2317.0 0.000432 1608.85486 2224.35962
2182.0 0.000458 1609.03943 2205.49585
2243.0 0.000446 1609.21936 2186.74976
2166.0 0.000462 1609.39502 2168.49976
2195.0 0.000456 1609.56567 2150.47241
2205.0 0.000454 1609.73157 2133.00269
2231.0 0.000448 1609.89233 2116.22290
2167.0 0.000461 1610.04785 2100.24438
2226.0 0.000449 1610.19800 2085.16235
2153.0 0.000464 1610.34265 2071.05835
2172.0 0.000460 1610.48169 2058.00488
2139.0 0.000468 1610.61487 2046.06458
2050.0 0.000488 1610.74194 2035.29163
2155.0 0.000464 1610.86292 2025.73425
2118.0 0.000472 1610.97791 2017.43396
2059.0 0.000486 1611.08618 2010.43225
2175.0 0.000460 1611.18811 2004.76392
2136.0 0.000468 1611.28345 2000.57202
1983.0 0.000504 1611.37195 1997.67810
2064.0 0.000484 1611.45361 1996.21069
2143.0 0.000467 1611.52820 1996.20593
2130.0 0.000469 1611.59558 1997.69751
2046.0 0.000489 1611.65588 2001.21130
2130.0 0.000469 1611.70850 2005.79346
2125.0 0.000471 1611.75378 2011.96912
2176.0 0.000460 1611.79163 2019.77051
2138.0 0.000468 1611.82166 2029.22974
2097.0 0.000477 1611.84387 2040.37927
2079.0 0.000481 1611.85815 2053.24707
2149.0 0.000465 1611.86450 2067.86035
2161.0 0.000463 1611.86267 2084.23950
2187.0 0.000457 1611.85278 2102.46362
2094.0 0.000478 1611.83447 2122.41943
2243.0 0.000446 1611.80798 2144.16919
2190.0 0.000457 1611.77283 2167.69702
2285.0 0.000438 1611.72937 2192.97852
2283.0 0.000438 1611.67712 2219.97290
2289.0 0.000437 1611.61621 2248.86426
2267.0 0.000441 1611.54675 2279.07080
2311.0 0.000433 1611.46826 2310.72852
2340.0 0.000427 1611.38110 2343.68872
2373.0 0.000421 1611.28503 2377.77417
2356.0 0.000424 1611.17993 2412.76953
2495.0 0.000401 1611.06567 2448.55542
2443.0 0.000409 1610.94263 2484.55493
2474.0 0.000404 1610.81018 2520.57568
2534.0 0.000395 1610.66882 2556.27905
2644.0 0.000378 1610.51819 2591.86816
2686.0 0.000372 1610.35840 2625.66553
2665.0 0.000375 1610.18921 2657.97900
2736.0 0.000365 1610.01086 2688.31689
2788.0 0.000359 1609.82312 2716.40088
2785.0 0.000359 1609.62622 2741.95483
2846.0 0.000351 1609.41980 2764.78247
2917.0 0.0003428 1609.20422 2784.76392
2811.0 0.000356 1608.97925 2802.96753
2853.0 0.0003505 1608.74475 2817.24854
2866.0 0.0003489 1608.50122 2828.80127
2900.0 0.0003448 1608.24817 2837.84424
2834.0 0.000353 1607.98584 2844.40161
2822.0 0.000354 1607.71411 2848.70801
2795.0 0.000358 1607.43323 2851.24072
2783.0 0.000359 1607.14294 2851.47998
2859.0 0.0003498 1606.84351 2849.84180
2763.0 0.000362 1606.53467 2846.42993
2800.0 0.000357 1606.21680 2841.23633
2825.0 0.000354 1605.88965 2834.33423
2837.0 0.000352 1605.55334 2826.11304
2776.0 0.000360 1605.20813 2815.93506
2722.0 0.000367 1604.85376 2804.20923
2696.0 0.000371 1604.49048 2791.56738
2801.0 0.000357 1604.11816 2769.46143
2629.0 0.000380 1603.73706 2753.73828
2792.0 0.000358 1603.34729 2736.92432
2699.0 0.000371 1602.94849 2719.17725
2603.0 0.000384 1602.54102 2700.67725
2663.0 0.000376 1602.12512 2681.61816
2534.0 0.000395 1601.70056 2662.20020
2601.0 0.000384 1601.26758 2642.47827
2564.0 0.000390 1600.82629 2622.96094
2485.0 0.000402 1600.37646 2603.69360
2477.0 0.000404 1599.91882 2584.49707
2495.0 0.000401 1599.45300 2566.41284
2493.0 0.000401 1598.97900 2548.86377
2450.0 0.000408 1598.49731 2532.11279
2452.0 0.000408 1598.00757 2516.22119
2437.0 0.000410 1597.51025 2501.22485
2413.0 0.000414 1597.00537 2486.53540
2429.0 0.000412 1596.49292 2472.81934
2387.0 0.000419 1595.97327 2461.19971
2457.0 0.000407 1595.44629 2449.70972
2276.0 0.000439 1594.91248 2439.01099
2354.0 0.000425 1594.37122 2428.98804
2382.0 0.000420 1593.82349 2419.74390
2310.0 0.000433 1593.26880 2411.37695
2279.0 0.000439 1592.70776 2403.38281
2332.0 0.000429 1592.14001 2395.91626
2340.0 0.000427 1591.56616 2388.89819
2291.0 0.000436 1590.98608 2382.02563
2227.0 0.000449 1590.39978 2375.62012
2234.0 0.000448 1589.80798 2369.04883
2201.0 0.000454 1589.21008 2362.78003
2222.0 0.000450 1588.60706 2356.12231
2192.0 0.000456 1587.99817 2349.46216
2251.0 0.000444 1587.38440 2342.77637
2346.0 0.000426 1586.76526 2335.26050
2167.0 0.000461 1586.14160 2327.34473
2182.0 0.000458 1585.51294 2318.67749
2260.0 0.000442 1584.87964 2309.47095
2107.0 0.000475 1584.24207 2299.84253
2210.0 0.000452 1583.59998 2289.63550
2222.0 0.000450 1582.95410 2278.94189
2205.0 0.000454 1582.30408 2268.07715
2180.0 0.000459 1581.65076 2257.03491
2135.0 0.000468 1580.99341 2245.91772
2269.0 0.000441 1580.33313 2234.81714
2110.0 0.000474 1579.66956 2223.81958
2163.0 0.000462 1579.00293 2212.99902
2147.0 0.000466 1578.33362 2202.42847
2006.0 0.000499 1577.66162 2192.17920
2102.0 0.000476 1576.98718 2182.32275
2081.0 0.000481 1576.31030 2173.01099
2119.0 0.000472 1575.63184 2164.18628
2124.0 0.000471 1574.95154 2156.03906
2122.0 0.000471 1574.26917 2148.60498
2119.0 0.000472 1573.58569 2142.00757
2222.0 0.000450 1572.90063 2136.40063
2122.0 0.000471 1572.21484 2131.73901
2058.0 0.000486 1571.52783 2128.15723
2134.0 0.000469 1570.84033 2125.70654
2220.0 0.000450 1570.15234 2124.46558
2109.0 0.000474 1569.46411 2124.36987
2179.0 0.000459 1568.77588 2125.45728
2154.0 0.000464 1568.08752 2127.70264
2141.0 0.000467 1567.39978 2131.06006
2195.0 0.000456 1566.71216 2135.46899
2200.0 0.000455 1566.02576 2140.84741
2154.0 0.000464 1565.33972 2147.09619
2183.0 0.000458 1564.65527 2154.12402
2157.0 0.000464 1563.97168 2161.88843
2258.0 0.000443 1563.28992 2170.08936
2238.0 0.000447 1562.60986 2178.74072
2275.0 0.000440 1561.93152 2187.67700
2217.0 0.000451 1561.25549 2196.83936
2352.0 0.000425 1560.58142 2206.14990
2350.0 0.000426 1559.91016 2215.57251
2342.0 0.000427 1559.24121 2225.02246
2323.0 0.000430 1558.57556 2234.49072
2381.0 0.000420 1557.91272 2243.95557
2334.0 0.000428 1557.25305 2253.40771
2464.0 0.000406 1556.59692 2262.83350
2370.0 0.000422 1555.94434 2272.22241
2418.0 0.000414 1555.29553 2281.56348
2392.0 0.000418 1554.65063 2290.84180
2345.0 0.000426 1554.01013 2300.05640
2374.0 0.000421 1553.37366 2309.17871
2473.0 0.000404 1552.74194 2318.22168
2400.0 0.000417 1552.11511 2327.20068
2500.0 0.000400 1551.49268 2336.14380
2528.0 0.000396 1550.87537 2345.36646
2503.0 0.000400 1550.26343 2354.53101
2513.0 0.000398 1549.65674 2364.00830
2534.0 0.000395 1549.05554 2373.50171
2509.0 0.000399 1548.46008 2383.37500
2417.0 0.000414 1547.87036 2393.73340
2478.0 0.000404 1547.28687 2404.67505
2576.0 0.000388 1546.70959 2416.28296
2572.0 0.000389 1546.13818 2430.43726
2475.0 0.000404 1545.57373 2443.54199
2522.0 0.000397 1545.01538 2457.40796
2583.0 0.000387 1544.46411 2471.99536
2547.0 0.000393 1543.91943 2487.44580
2555.0 0.000391 1543.38184 2503.24023
2562.0 0.000390 1542.85156 2519.44165
2617.0 0.000382 1542.32825 2535.87793
2511.0 0.000398 1541.81262 2552.40430
2542.0 0.000393 1541.30420 2568.80054
2482.0 0.000403 1540.80359 2584.62085
2541.0 0.000394 1540.31055 2599.73511
2604.0 0.000384 1539.82544 2613.89258
2588.0 0.000386 1539.34814 2626.86230
2579.0 0.000388 1538.87903 2638.44287
2615.0 0.000382 1538.41797 2649.39087
2642.0 0.000379 1537.96497 2657.80688
2587.0 0.000387 1537.52051 2665.79956
2635.0 0.000380 1537.08423 2669.96338
2594.0 0.000386 1536.65662 2673.57373
2707.0 0.000369 1536.23743 2675.89307
2691.0 0.000372 1535.82690 2676.87915
2737.0 0.000365 1535.42493 2676.81738
2678.0 0.000373 1535.03186 2675.89355
2577.0 0.000388 1534.64746 2674.26978
2671.0 0.000374 1534.27185 2672.09497
2600.0 0.000385 1533.90515 2669.49316
2608.0 0.000383 1533.54749 2666.55713
2664.0 0.000375 1533.19861 2663.37476
2614.0 0.000383 1532.85864 2660.00903
2610.0 0.000383 1532.52795 2656.52148
2604.0 0.000384 1532.20630 2652.49023
2548.0 0.000392 1531.89343 2649.55908
2628.0 0.000381 1531.58984 2646.07837
2505.0 0.000399 1531.29517 2642.71704
2615.0 0.000382 1531.00964 2639.52783
2591.0 0.000386 1530.73315 2636.54517
2527.0 0.000396 1530.46570 2633.78149
2584.0 0.000387 1530.20740 2631.22974
2611.0 0.000383 1529.95789 2628.84473
2519.0 0.000397 1529.71765 2626.56836
2572.0 0.000389 1529.48608 2624.31177
2530.0 0.000395 1529.26367 2621.97339
2660.0 0.000376 1529.05005 2619.44580
2600.0 0.000385 1528.84534 2613.96143
2596.0 0.000385 1528.64929 2610.74463
2559.0 0.000391 1528.46191 2607.01831
2542.0 0.000393 1528.28333 2605.24756
2521.0 0.000397 1528.11328 2600.26025
2640.0 0.000379 1527.95190 2594.51587
2593.0 0.000386 1527.79871 2587.93848
2571.0 0.000389 1527.65405 2580.47070
2648.0 0.000378 1527.51758 2572.05542
2586.0 0.000387 1527.38940 2562.65063
2565.0 0.000390 1527.26917 2552.23901
2470.0 0.000405 1527.15698 2540.81836
2579.0 0.000388 1527.05261 2528.41650
2591.0 0.000386 1526.95605 2510.17969
2566.0 0.000390 1526.86694 2496.04541
2507.0 0.000399 1526.78540 2481.17432
2507.0 0.000399 1526.71130 2465.69019
2530.0 0.000395 1526.64441 2449.72852
2538.0 0.000394 1526.58459 2434.70190
2606.0 0.000384 1526.53162 2418.21899
2544.0 0.000393 1526.48560 2401.68018
2563.0 0.000390 1526.44604 2385.21118
2464.0 0.000406 1526.41321 2368.93433
2379.0 0.000420 1526.38635 2352.95776
2453.0 0.000408 1526.36584 2337.33862
2331.0 0.000429 1526.35120 2322.26807
2405.0 0.000416 1526.34229 2308.26050
2290.0 0.000437 1526.33911 2294.45776
2389.0 0.000419 1526.34119 2281.40283
2293.0 0.000436 1526.34863 2269.16602
2247.0 0.000445 1526.36108 2257.79980
2230.0 0.000448 1526.37817 2247.34351
2320.0 0.000431 1526.40002 2239.10156
2345.0 0.000426 1526.42615 2230.52661
2250.0 0.000444 1526.45642 2222.88062
2231.0 0.000448 1526.49084 2216.37524
2217.0 0.000451 1526.52881 2210.50439
2253.0 0.000444 1526.57031 2205.45874
2256.0 0.000443 1526.61511 2201.19556
2228.0 0.000449 1526.66309 2197.67236
2211.0 0.000452 1526.71362 2194.85034
2254.0 0.000444 1526.76697 2192.93774
2225.0 0.000449 1526.82239 2191.73413
2153.0 0.000464 1526.88013 2191.00146
2209.0 0.000453 1526.93945 2190.76758
2264.0 0.000442 1527.00037 2191.14063
2225.0 0.000449 1527.06274 2192.10083
2106.0 0.000475 1527.12610 2194.25220
2246.0 0.000445 1527.19031 2197.07959
2217.0 0.000451 1527.25488 2199.56787
2146.0 0.000466 1527.31995 2202.44189
2223.0 0.000450 1527.38477 2205.72388
2226.0 0.000449 1527.44946 2209.08398
2319.0 0.000431 1527.51355 2212.53833
2233.0 0.000448 1527.57690 2215.97607
2235.0 0.000447 1527.63892 2219.29248
2263.0 0.000442 1527.69983 2222.37817
2172.0 0.000460 1527.75879 2226.14331
2300.0 0.000435 1527.81592 2229.58252
2238.0 0.000447 1527.87097 2231.41968
2324.0 0.000430 1527.92334 2232.67896
2281.0 0.000438 1527.97302 2233.29956
2139.0 0.000468 1528.01965 2233.24805
2238.0 0.000447 1528.06287 2233.25122
2245.0 0.000445 1528.10229 2232.09985
2251.0 0.000444 1528.13806 2230.04834
2222.0 0.000450 1528.16931 2227.40991
2173.0 0.000460 1528.19641 2224.00317
2264.0 0.000442 1528.21838 2220.44995
2252.0 0.000444 1528.23535 2216.59375
2162.0 0.000463 1528.24707 2210.87012
2228.0 0.000449 1528.25317 2206.76904
2214.0 0.000452 1528.25330 2203.25000
2186.0 0.000457 1528.24719 2199.33862
2139.0 0.000468 1528.23462 2196.19702
2126.0 0.000470 1528.21533 2192.87744
2152.0 0.000465 1528.18884 2189.98486
2184.0 0.000458 1528.15503 2188.66943
2141.0 0.000467 1528.11389 2187.27344
2188.0 0.000457 1528.06458 2186.19995
2154.0 0.000464 1528.00732 2185.91187
2189.0 0.000457 1527.94153 2186.49976
2241.0 0.000446 1527.86719 2188.06274
2176.0 0.000460 1527.78381 2190.69507
2081.0 0.000481 1527.69128 2194.48901
2166.0 0.000462 1527.58936 2199.53125
2207.0 0.000453 1527.47766 2205.89648
2146.0 0.000466 1527.35596 2213.64600
2136.0 0.000468 1527.22412 2222.94897
2157.0 0.000464 1527.08191 2233.58179
2190.0 0.000457 1526.92883 2245.67090
2225.0 0.000449 1526.76514 2259.19263
2247.0 0.000445 1526.59009 2274.62402
2217.0 0.000451 1526.40381 2290.84351
2298.0 0.000435 1526.20581 2308.26270
2293.0 0.000436 1525.99609 2326.74390
2256.0 0.000443 1525.77429 2346.27539
2371.0 0.000422 1525.54041 2366.69897
2324.0 0.000430 1525.29395 2387.21997
2370.0 0.000422 1525.03479 2407.93506
2357.0 0.000424 1524.76318 2428.55981
2406.0 0.000416 1524.47827 2448.79248
2424.0 0.000413 1524.18042 2468.32593
2395.0 0.000418 1523.86890 2486.85522
2433.0 0.000411 1523.54431 2504.09521
2427.0 0.000412 1523.20593 2519.78784
2466.0 0.000406 1522.85352 2533.71484
2468.0 0.000405 1522.48718 2545.71021
2488.0 0.000402 1522.10693 2555.65332
2603.0 0.000384 1521.71240 2563.48706
2474.0 0.000404 1521.30347 2569.19409
2449.0 0.000408 1520.88000 2572.79736
2412.0 0.000415 1520.44226 2574.60278
2402.0 0.000416 1519.98950 2574.15991
2399.0 0.000417 1519.52222 2571.95386
2473.0 0.000404 1519.03979 2567.73145
2548.0 0.000392 1518.54260 2561.70117
2359.0 0.000424 1518.03027 2553.91797
2478.0 0.000404 1517.50293 2544.42163
2518.0 0.000397 1516.96045 2533.30566
2392.0 0.000418 1516.40295 2520.52856
2449.0 0.000408 1515.83020 2506.20972
2424.0 0.000413 1515.24207 2490.44385
2382.0 0.000420 1514.63892 2473.35327
2475.0 0.000404 1514.02014 2455.08374
2283.0 0.000438 1513.38647 2435.80249
2384.0 0.000419 1512.73718 2415.70068
2271.0 0.000440 1512.07300 2394.97339
2287.0 0.000437 1511.39319 2373.81567
2241.0 0.000446 1510.69873 2352.60254
2325.0 0.000430 1509.98877 2331.14990
2284.0 0.000438 1509.26367 2309.79956
2138.0 0.000468 1508.52380 2288.69312
2118.0 0.000472 1507.76868 2267.94946
2181.0 0.000459 1506.99915 2247.66846
2166.0 0.000462 1506.21436 2227.95239
2166.0 0.000462 1505.41528 2208.81665
2199.0 0.000455 1504.60156 2190.33179
2137.0 0.000468 1503.77319 2172.53174
2119.0 0.000472 1502.93079 2155.43799
2115.0 0.000473 1502.07397 2139.06543
2101.0 0.000476 1501.20337 2123.41650
2083.0 0.000480 1500.31860 2108.49390
2026.0 0.000494 1499.42065 2094.73730
2045.0 0.000489 1498.50867 2081.30737
2096.0 0.000477 1497.58398 2068.53809
2107.0 0.000475 1496.64600 2056.47485
2045.0 0.000489 1495.69482 2044.03967
1966.0 0.000509 1494.73145 2033.39014
2083.0 0.000480 1493.75513 2023.44849
2008.0 0.000498 1492.76697 2014.22021
2077.0 0.000481 1491.76672 2005.71399
2122.0 0.000471 1490.75488 1997.93738
2032.0 0.000492 1489.73145 1990.89294
2075.0 0.000482 1488.69714 1984.58899
2127.0 0.000470 1487.65222 1979.02063
2072.0 0.000483 1486.59619 1974.18323
2027.0 0.000493 1485.53040 1970.06958
2147.0 0.000466 1484.45422 1967.34790
2047.0 0.000489 1483.36902 1964.86255
1973.0 0.000507 1482.27405 1962.88989
2025.0 0.000494 1481.17053 1958.99841
2025.0 0.000494 1480.05859 1958.27271
2078.0 0.000481 1478.93799 1958.15283
2024.0 0.000494 1477.81018 1958.61377
2035.0 0.000491 1476.67432 1959.55603
2022.0 0.000495 1475.53198 1961.09094
2012.0 0.000497 1474.38257 1963.10974
1995.0 0.000501 1473.22742 1965.41614
2106.0 0.000475 1472.06592 1968.27026
2038.0 0.000491 1470.89954 1971.46533
2059.0 0.000486 1469.72815 1974.94202
2092.0 0.000478 1468.55200 1979.49524
2069.0 0.000483 1467.37195 1983.36108
2042.0 0.000490 1466.18787 1987.39221
2049.0 0.000488 1465.00134 1991.45398
2104.0 0.000475 1463.81140 1995.00610
2057.0 0.000486 1462.61987 1999.03992
2103.0 0.000476 1461.42615 2003.08984
1976.0 0.000506 1460.23169 2007.11609
2121.0 0.000471 1459.03625 2011.22620
2077.0 0.000481 1457.84033 2015.43945
2004.0 0.000499 1456.64502 2019.92310
2030.0 0.000493 1455.45020 2024.56384
2109.0 0.000474 1454.25684 2029.54590
2098.0 0.000477 1453.06494 2034.96069
2127.0 0.000470 1451.87585 2040.90149
2112.0 0.000473 1450.68958 2048.80103
2090.0 0.000478 1449.50623 2056.06812
2136.0 0.000468 1448.32739 2064.12085
2078.0 0.000481 1447.15234 2072.79150
2149.0 0.000465 1445.98291 2082.64844
2179.0 0.000459 1444.81848 2093.53760
2268.0 0.000441 1443.66052 2105.52686
2135.0 0.000468 1442.50903 2118.71558
2262.0 0.000442 1441.36499 2133.14087
2193.0 0.000456 1440.22876 2148.90503
2187.0 0.000457 1439.10034 2166.07593
2264.0 0.000442 1437.98132 2184.56079
2339.0 0.000428 1436.87122 2203.76807
2286.0 0.000437 1435.77173 2225.54028
2299.0 0.000435 1434.68213 2248.15845
2347.0 0.000426 1433.60413 2273.16846
2406.0 0.000416 1432.53735 2300.24658
2363.0 0.000423 1431.48303 2328.44360
2444.0 0.000409 1430.44165 2358.14844
2417.0 0.000414 1429.41321 2389.26660
2410.0 0.000415 1428.39905 2421.67749
2502.0 0.000400 1427.39880 2455.21631
2546.0 0.000393 1426.41394 2489.70044
2645.0 0.000378 1425.44421 2524.88403
2640.0 0.000379 1424.49097 2560.51611
2547.0 0.000393 1423.55408 2596.30981
2583.0 0.000387 1422.63416 2631.95605
2717.0 0.000368 1421.73206 2667.13403
2686.0 0.000372 1420.84778 2702.36841
2730.0 0.000366 1419.98254 2735.65894
2811.0 0.000356 1419.13611 2767.55933
2931.0 0.0003412 1418.30981 2797.81812
2936.0 0.0003406 1417.50317 2826.23755
2797.0 0.000358 1416.71765 2852.66772
2864.0 0.0003492 1415.95325 2877.02490
2911.0 0.0003435 1415.20996 2899.27783
3036.0 0.0003294 1414.48901 2919.43994
3048.0 0.0003281 1413.79065 2937.56567
3037.0 0.0003293 1413.11523 2953.73364
3174.0 0.0003151 1412.46313 2968.02905
2967.0 0.0003370 1411.83496 2980.53589
2965.0 0.0003373 1411.23083 2991.32788
2976.0 0.0003360 1410.65161 3000.46875
2950.0 0.0003390 1410.09753 3007.99707
2992.0 0.0003342 1409.56860 3014.37671
3000.0 0.0003333 1409.06567 3018.80615
2913.0 0.0003433 1408.58875 3021.75195
3033.0 0.0003297 1408.13843 3023.34448
2999.0 0.0003334 1407.71484 3023.58130
3013.0 0.0003319 1407.31860 3022.66602
3043.0 0.0003286 1406.94983 3020.78955
3003.0 0.0003330 1406.60864 3018.18970
3070.0 0.0003257 1406.29578 3015.13867
2949.0 0.0003391 1406.01086 3011.93457
2947.0 0.0003393 1405.75488 3008.89404
2977.0 0.0003359 1405.52734 3006.33447
3056.0 0.0003272 1405.32910 3004.56812
2900.0 0.0003448 1405.15991 3003.88623
2976.0 0.0003360 1405.02026 3004.55420
2936.0 0.0003406 1404.90991 3006.80493
3016.0 0.0003316 1404.82947 3011.33911
2892.0 0.0003458 1404.77881 3017.32397
2931.0 0.0003412 1404.75818 3025.38110
3008.0 0.0003324 1404.76758 3035.63232
2954.0 0.0003385 1404.80701 3048.08398
2942.0 0.0003399 1404.87683 3062.78882
2953.0 0.0003386 1404.97681 3079.74048
3018.0 0.0003313 1405.10706 3098.89722
3108.0 0.0003218 1405.26746 3120.18408
2998.0 0.0003336 1405.45837 3143.48633
3125.0 0.0003200 1405.67920 3168.64990
3065.0 0.0003263 1405.93030 3195.48804
3146.0 0.0003179 1406.21155 3223.77515
3122.0 0.0003203 1406.52271 3253.54395
3132.0 0.0003193 1406.86377 3283.95288
3205.0 0.0003120 1407.23450 3315.00635
3179.0 0.0003146 1407.63489 3346.67773
3200.0 0.0003125 1408.06458 3378.20972
3332.0 0.0003001 1408.52356 3409.62329
3333.0 0.0003000 1409.01123 3441.24194
3317.0 0.0003015 1409.52795 3471.89673
3386.0 0.0002953 1410.07275 3501.99487
3302.0 0.0003028 1410.64624 3531.47705
3348.0 0.0002987 1411.24695 3560.30908
3428.0 0.0002917 1411.87549 3588.47876
3450.0 0.0002899 1412.53125 3615.97778
3455.0 0.0002894 1413.21350 3641.26929
3507.0 0.0002851 1413.92249 3667.38940
3498.0 0.0002859 1414.65723 3692.75586
3600.0 0.0002778 1415.41760 3717.43555
3530.0 0.0002833 1416.20276 3741.04590
3563.0 0.0002807 1417.01294 3763.60913
3719.0 0.0002689 1417.84656 3784.99194
3632.0 0.0002753 1418.70398 3805.04126
3728.0 0.0002682 1419.58459 3823.59839
3654.0 0.0002737 1420.48730 3840.76196
3722.0 0.0002687 1421.41199 3855.85669
3807.0 0.0002627 1422.35767 3868.98853
3729.0 0.0002682 1423.32422 3880.24463
3719.0 0.0002689 1424.31030 3889.04883
3730.0 0.0002681 1425.31543 3894.12915
3834.0 0.0002608 1426.33960 3898.21826
3803.0 0.0002630 1427.38098 3899.86157
3724.0 0.0002685 1428.43994 3899.04297
3878.0 0.0002579 1429.51477 3895.78638
3805.0 0.0002628 1430.60535 3890.13916
3779.0 0.0002646 1431.71033 3882.18823
3770.0 0.0002653 1432.82947 3872.04053
3772.0 0.0002651 1433.96143 3859.82935
3667.0 0.0002727 1435.10535 3845.70703
3804.0 0.0002629 1436.26111 3829.84399
3717.0 0.0002690 1437.42664 3812.57300
3793.0 0.0002636 1438.60242 3793.76416
3770.0 0.0002653 1439.78601 3773.98779
3715.0 0.0002692 1440.97778 3753.09424
3693.0 0.0002708 1442.17590 3731.26563
3622.0 0.0002761 1443.38000 3708.79541
3570.0 0.0002801 1444.58850 3685.85767
3568.0 0.0002803 1445.80054 3662.63184
3674.0 0.0002722 1447.01575 3639.27759
3573.0 0.0002799 1448.23206 3615.95337
3481.0 0.0002873 1449.44971 3592.80737
3644.0 0.0002744 1450.66626 3570.02588
3541.0 0.0002824 1451.88184 3547.61646
3512.0 0.0002847 1453.09412 3525.72705
3437.0 0.0002910 1454.30310 3504.42944
3468.0 0.0002884 1455.50757 3483.77246
3413.0 0.0002930 1456.70581 3463.84766
3506.0 0.0002852 1457.89746 3444.50171
3407.0 0.0002935 1459.08057 3425.94287
3369.0 0.0002968 1460.25488 3408.26758
3468.0 0.0002884 1461.41846 3390.43726
3308.0 0.0003023 1462.57080 3373.29370
3378.0 0.0002960 1463.71008 3356.54956
3280.0 0.0003049 1464.83582 3340.14575
3303.0 0.0003028 1465.94702 3324.05078
3234.0 0.0003092 1467.04163 3308.18262
3269.0 0.0003059 1468.11951 3292.52783
3273.0 0.0003055 1469.17871 3277.08569
3322.0 0.0003010 1470.21863 3261.77515
3214.0 0.0003111 1471.23755 3246.59033
3167.0 0.0003158 1472.23511 3231.48926
3228.0 0.0003098 1473.20947 3216.41357
3154.0 0.0003171 1474.15955 3201.27173
3092.0 0.0003234 1475.08484 3185.96045
3266.0 0.0003062 1475.98364 3169.95874
3250.0 0.0003077 1476.85522 3154.13184
3168.0 0.0003157 1477.69812 3137.46411
3369.0 0.0002968 1478.51160 3120.00854
3290.0 0.0003040 1479.29419 3101.59497
3321.0 0.0003011 1480.04492 3082.07251
3305.0 0.0003026 1480.76318 3061.32056
3381.0 0.0002958 1481.44727 3040.09717
3344.0 0.0002990 1482.09680 3016.62280
3369.0 0.0002968 1482.71008 2991.76294
3288.0 0.0003041 1483.28687 2965.55664
3301.0 0.0003029 1483.82532 2938.09131
3349.0 0.0002986 1484.32532 2909.49048
3185.0 0.0003140 1484.78540 2879.90381
3142.0 0.0003183 1485.20471 2849.18066
3106.0 0.0003220 1485.58264 2818.09668
3102.0 0.0003224 1485.91797 2786.50757
2932.0 0.0003411 1486.21021 2754.55518
2952.0 0.0003388 1486.45801 2722.36304
2810.0 0.000356 1486.66125 2690.03882
2888.0 0.0003463 1486.81848 2657.66504
2861.0 0.0003495 1486.92969 2625.41260
2692.0 0.000371 1486.99341 2593.27515
2716.0 0.000368 1487.00964 2561.57349
2660.0 0.000376 1486.97729 2529.63330
2683.0 0.000373 1486.89600 2497.94653
2572.0 0.000389 1486.76489 2466.58252
2536.0 0.000394 1486.58386 2435.62256
2489.0 0.000402 1486.35193 2405.15234
2449.0 0.000408 1486.06909 2374.85352
2498.0 0.000400 1485.73462 2345.65723
2527.0 0.000396 1485.34790 2317.24146
2492.0 0.000401 1484.90930 2289.64575
2379.0 0.000420 1484.41772 2263.07251
2367.0 0.000422 1483.87354 2237.54395
2360.0 0.000424 1483.27600 2213.12280
2284.0 0.000438 1482.62537 2190.75562
2207.0 0.000453 1481.92102 2168.70654
2161.0 0.000463 1481.16345 2146.59839
2148.0 0.000466 1480.35217 2127.10889
2163.0 0.000462 1479.48730 2108.80859
2082.0 0.000480 1478.56885 2091.76367
2110.0 0.000474 1477.59668 2075.96436
2021.0 0.000495 1476.57178 2061.40381
2040.0 0.000490 1475.49316 2048.06006
2084.0 0.000480 1474.36218 2035.91382
2054.0 0.000487 1473.17810 2024.94250
2040.0 0.000490 1471.94226 2015.09656
2007.0 0.000498 1470.65466 2006.40808
2011.0 0.000497 1469.31519 1998.82275
2019.0 0.000495 1467.92517 1991.96912
1987.0 0.000503 1466.48438 1986.51538
1993.0 0.000502 1464.99438 1982.52820
2045.0 0.000489 1463.45483 1978.55200
1961.0 0.000510 1461.86731 1976.09448
2017.0 0.000496 1460.23230 1974.57666
1989.0 0.000503 1458.54993 1973.97119
1964.0 0.000509 1456.82227 1974.25012
1951.0 0.000513 1455.04895 1975.38525
1947.0 0.000514 1453.23242 1977.35059
1961.0 0.000510 1451.37219 1980.38245
1952.0 0.000512 1449.47070 1983.93457
1919.0 0.000521 1447.52795 1988.23853
1991.0 0.000502 1445.54639 1993.27332
1949.0 0.000513 1443.52661 1999.01123
2038.0 0.000491 1441.46912 2005.39563
1929.0 0.000518 1439.37695 2012.46191
1993.0 0.000502 1437.24976 2020.14172
1969.0 0.000508 1435.09070 2028.40015
1951.0 0.000513 1432.89966 2037.20056
1974.0 0.000507 1430.67993 2046.50745
1971.0 0.000507 1428.43127 2056.28149
1973.0 0.000507 1426.15710 2066.48755
1973.0 0.000507 1423.85864 2077.09375
2096.0 0.000477 1421.53625 2088.13354
1961.0 0.000510 1419.19397 2099.44995
1999.0 0.000500 1416.83154 2111.21631
2062.0 0.000485 1414.45288 2122.61011
2086.0 0.000479 1412.05798 2134.82642
2070.0 0.000483 1409.65076 2147.31201
2066.0 0.000484 1407.23218 2160.02319
2117.0 0.000472 1404.80371 2173.29785
2073.0 0.000482 1402.36890 2186.38477
2090.0 0.000478 1399.92847 2199.59668
2089.0 0.000479 1397.48608 2212.88501
2028.0 0.000493 1395.04236 2226.19067
2126.0 0.000470 1392.60132 2239.45654
2124.0 0.000471 1390.16345 2252.62109
2127.0 0.000470 1387.73291 2265.62744
2154.0 0.000464 1385.31104 2278.41870
2095.0 0.000477 1382.89917 2290.98047
2141.0 0.000467 1380.50171 2303.20166
2131.0 0.000469 1378.11938 2314.90210
2159.0 0.000463 1375.75598 2326.39868
2207.0 0.000453 1373.41260 2337.47754
2178.0 0.000459 1371.09314 2348.10327
2170.0 0.000461 1368.79858 2358.23340
2271.0 0.000440 1366.53296 2367.84766
2191.0 0.000456 1364.29810 2376.82544
2194.0 0.000456 1362.09534 2385.14307
2290.0 0.000437 1359.92896 2392.73975
2297.0 0.000435 1357.79980 2399.55713
2245.0 0.000445 1355.71216 2406.39136
2355.0 0.000425 1353.66663 2411.60181
2283.0 0.000438 1351.66724 2415.83350
2266.0 0.000441 1349.71594 2419.15674
2255.0 0.000443 1347.81421 2421.56665
2322.0 0.000431 1345.96594 2423.07495
2326.0 0.000430 1344.17224 2423.69434
2314.0 0.000432 1342.43677 2423.34668
2383.0 0.000420 1340.76038 2422.23657
2367.0 0.000422 1339.14685 2420.27759
2333.0 0.000429 1337.59717 2417.47144
2274.0 0.000440 1336.11487 2413.81177
2367.0 0.000422 1334.70105 2409.29468
2295.0 0.000436 1333.35803 2403.90771
2302.0 0.000434 1332.08850 2397.89795
2421.0 0.000413 1330.89368 2390.96533
2343.0 0.000427 1329.77637 2383.43677
2339.0 0.000428 1328.73767 2374.74121
2363.0 0.000423 1327.78040 2365.27075
2385.0 0.000419 1326.90527 2355.15015
2299.0 0.000435 1326.11499 2344.37695
2371.0 0.000422 1325.41064 2333.26904
2268.0 0.000441 1324.79382 2322.18750
2289.0 0.000437 1324.26624 2310.56763
2289.0 0.000437 1323.82898 2298.86401
2231.0 0.000448 1323.48376 2287.19531
2212.0 0.000452 1323.23132 2275.79590
2269.0 0.000441 1323.07336 2264.46265
2205.0 0.000454 1323.01062 2253.40845
2283.0 0.000438 1323.04382 2242.67969
2319.0 0.000431 1323.17407 2232.43555
2384.0 0.000419 1323.40198 2222.54712
2216.0 0.000451 1323.72791 2212.96167
2221.0 0.000450 1324.15308 2203.76611
2216.0 0.000451 1324.67688 2194.94824
2293.0 0.000436 1325.30042 2186.48804
2260.0 0.000442 1326.02307 2178.35425
2359.0 0.000424 1326.84521 2170.51221
2320.0 0.000431 1327.76685 2162.92041
2325.0 0.000430 1328.78735 2155.57617
2277.0 0.000439 1329.90662 2148.45850
2330.0 0.000429 1331.12366 2141.09546
2291.0 0.000436 1332.43860 2134.10181
2323.0 0.000430 1333.84949 2127.25098
2242.0 0.000446 1335.35645 2120.56714
2240.0 0.000446 1336.95703 2113.76855
2232.0 0.000448 1338.65088 2107.88794
2185.0 0.000458 1340.43713 2101.28979
2294.0 0.000436 1342.31274 2093.01880
2267.0 0.000441 1344.27734 2087.53516
2172.0 0.000460 1346.32764 2081.57495
2238.0 0.000447 1348.46326 2075.93091
2286.0 0.000437 1350.68018 2070.64673
2110.0 0.000474 1352.97668 2065.55933
2202.0 0.000454 1355.35156 2061.34912
2269.0 0.000441 1357.79993 2057.38867
2182.0 0.000458 1360.32104 2053.78345
2199.0 0.000455 1362.91003 2050.86963
2171.0 0.000461 1365.56543 2048.42261
2198.0 0.000455 1368.28223 2046.49353
2214.0 0.000452 1371.05859 2045.09546
2170.0 0.000461 1373.88916 2044.78357
2170.0 0.000461 1376.77112 2044.46289
2161.0 0.000463 1379.70142 2044.19861
2205.0 0.000454 1382.67395 2044.99536
2112.0 0.000473 1385.68689 2045.12793
2081.0 0.000481 1388.73303 2047.48242
2128.0 0.000470 1391.81079 2049.98438
2105.0 0.000475 1394.91296 2052.93091
2169.0 0.000461 1398.03687 2056.51636
2189.0 0.000457 1401.17566 2060.60254
2192.0 0.000456 1404.32520 2065.32739
2129.0 0.000470 1407.48157 2070.30127
2107.0 0.000475 1410.63721 2075.87207
2111.0 0.000474 1413.78894 2081.53442
2188.0 0.000457 1416.92896 2087.92212
2222.0 0.000450 1420.05432 2094.05957
2222.0 0.000450 1423.15662 2100.35645
2233.0 0.000448 1426.23169 2107.64087
2212.0 0.000452 1429.27441 2114.13135
2141.0 0.000467 1432.27710 2120.03638
2205.0 0.000454 1435.23572 2126.55005
2095.0 0.000477 1438.14221 2133.66431
2147.0 0.000466 1440.99280 2140.05054
2112.0 0.000473 1443.77905 2146.25244
2136.0 0.000468 1446.49719 2152.23755
2180.0 0.000459 1449.13892 2157.94019
2185.0 0.000458 1451.69958 2163.27905
2192.0 0.000456 1454.17358 2168.22095
2139.0 0.000468 1456.55334 2172.65869
2099.0 0.000476 1458.83447 2176.55054
2126.0 0.000470 1461.00952 2179.72412
2110.0 0.000474 1463.07385 2182.43115
2191.0 0.000456 1465.02051 2184.17627
2036.0 0.000491 1466.84509 2185.16968
2133.0 0.000469 1468.54065 2183.18652
2098.0 0.000477 1470.10217 2182.82788
2010.0 0.000498 1471.52527 2181.65527
2060.0 0.000485 1472.80322 2179.82715
2004.0 0.000499 1473.93237 2177.72705
2100.0 0.000476 1474.90674 2174.76465
2112.0 0.000473 1475.72241 2171.32788
2091.0 0.000478 1476.37476 2167.47583
2111.0 0.000474 1476.85925 2163.26636
1979.0 0.000505 1477.17236 2158.74121
1992.0 0.000502 1477.31018 2153.94287
1969.0 0.000508 1477.26941 2149.06152
1989.0 0.000503 1477.04675 2143.79932
1985.0 0.000504 1476.63965 2138.33179
2010.0 0.000498 1476.04553 2132.67041
1989.0 0.000503 1475.26208 2126.38208
1955.0 0.000512 1474.28821 2120.38208
1917.0 0.000522 1473.12219 2114.22217
1940.0 0.000515 1471.76257 2107.97754
2017.0 0.000496 1470.20984 2101.55273
1959.0 0.000510 1468.46277 2095.02856
1940.0 0.000515 1466.52307 2088.42944
1993.0 0.000502 1464.39014 2081.78198
2012.0 0.000497 1462.06689 2074.63965
1959.0 0.000510 1459.55359 2067.96851
1906.0 0.000525 1456.85425 2061.39697
1994.0 0.000502 1453.97119 2054.75635
1970.0 0.000508 1450.90649 2048.42310
1997.0 0.000501 1447.66650 2041.84314
1964.0 0.000509 1444.25342 2033.94421
2013.0 0.000497 1440.67505 2027.32117
1992.0 0.000502 1436.93445 2020.65369
2078.0 0.000481 1433.04089 2014.33655
2003.0 0.000499 1428.99988 2007.29602
1933.0 0.000517 1424.81775 2000.40137
1984.0 0.000504 1420.50586 1993.40979
2013.0 0.000497 1416.06958 1986.32239
2030.0 0.000493 1411.52222 1979.14539
1991.0 0.000502 1406.87036 1971.65271
1962.0 0.000510 1402.12842 1964.04248
2035.0 0.000491 1397.30396 1956.54529
1995.0 0.000501 1392.41321 1949.13220
2086.0 0.000479 1387.46680 1942.48376
1896.0 0.000527 1382.47620 1935.00317
1977.0 0.000506 1377.45911 1927.95447
1965.0 0.000509 1372.42639 1919.29626
1903.0 0.000525 1367.39661 1911.68188
2038.0 0.000491 1362.38184 1903.99365
1942.0 0.000515 1357.40186 1896.11438
1919.0 0.000521 1352.46960 1888.26953
1912.0 0.000523 1347.60571 1880.84985
1822.0 0.000549 1342.82593 1872.87085
1923.0 0.000520 1338.14600 1864.85388
1814.0 0.000551 1333.58789 1856.84290
1900.0 0.000526 1329.16663 1847.87939
1893.0 0.000528 1324.90381 1839.13074
1877.0 0.000533 1320.81543 1831.48389
1934.0 0.000517 1316.92285 1824.09863
1828.0 0.000547 1313.24390 1817.04858
1854.0 0.000539 1309.79565 1810.79126
1861.0 0.000537 1306.59961 1804.06335
1880.0 0.000532 1303.67151 1798.67871
1891.0 0.000529 1301.03149 1793.75427
1840.0 0.000543 1298.69495 1789.53442
1892.0 0.000529 1296.68066 1786.08765
1875.0 0.000533 1295.00330 1783.46997
1892.0 0.000529 1293.67908 1781.74023
1855.0 0.000539 1292.72205 1780.95190
1798.0 0.000556 1292.14478 1781.40857
1840.0 0.000543 1291.95959 1782.23059
1883.0 0.000531 1292.17651 1784.02332
1874.0 0.000534 1292.80396 1787.51746
1860.0 0.000538 1293.84875 1792.19861
1852.0 0.000540 1295.31494 1798.10938
1904.0 0.000525 1297.20544 1804.10706
1849.0 0.000541 1299.51868 1812.40613
1798.0 0.000556 1302.25159 1822.20398
1849.0 0.000541 1305.39917 1833.33875
1849.0 0.000541 1308.94922 1845.82324
1970.0 0.000508 1312.89063 1859.64661
1871.0 0.000534 1317.20288 1874.79858
1908.0 0.000524 1321.86719 1891.26245
1927.0 0.000519 1326.85352 1909.00342
1921.0 0.000521 1332.13123 1927.97766
1925.0 0.000519 1337.66565 1948.13086
1996.0 0.000501 1343.40869 1969.26514
1994.0 0.000502 1349.31555 1991.55676
1991.0 0.000502 1355.32495 2014.77747
2109.0 0.000474 1361.37781 2038.81653
2033.0 0.000492 1367.39771 2063.54419
1960.0 0.000510 1373.30945 2088.28760
2071.0 0.000483 1379.01941 2113.93140
2040.0 0.000490 1384.43164 2139.75342
2080.0 0.000481 1389.43945 2165.17651
2108.0 0.000474 1393.91943 2190.70020
2071.0 0.000483 1397.74451 2215.69556
2124.0 0.000471 1400.76843 2239.87036
2213.0 0.000452 1402.83801 2262.92529
2243.0 0.000446 1403.78186 2284.53589
2336.0 0.000428 1403.41663 2304.36816
2188.0 0.000457 1401.54297 2322.07495
2274.0 0.000440 1397.94617 2337.30493
2282.0 0.000438 1392.38989 2349.69629
2199.0 0.000455 1384.62769 2358.89819
2297.0 0.000435 1374.38391 2364.54590
2322.0 0.000431 1361.37549 2366.28906
2401.0 0.000416 1345.28064 2363.75317
2310.0 0.000433 1325.77734 2356.58765
2293.0 0.000436 1302.50281 2344.41406
2382.0 0.000420 1275.06274 2326.74194
2304.0 0.000434 1243.06873 2303.37671
2278.0 0.000439 1206.05945 2273.78540
2248.0 0.000445 1163.59778 2237.54077
2269.0 0.000441 1115.15430 2194.14209
2331.0 0.000429 1060.23853 2143.12573
2253.0 0.000444 998.24493 2083.91357
2271.0 . . .
loop_
_refln_index_h
_refln_index_k
_refln_index_l
_pd_refln_wavelength_id
_refln_observed_status
_refln_F_squared_meas
_refln_F_squared_calc
_refln_phase_calc
_refln_d_spacing
_gsas_i100_meas
0 2 0 1 o 66731.69 66558.36 180.00 9.36011 100.00
0 2 0 2 o 66100.02 66558.36 180.00 9.36011 49.28
1 0 0 1 o 46363.98 46941.39 0.00 7.58576 45.39
1 0 0 2 o 46238.66 46941.39 0.00 7.58576 22.52
1 1 0 1 o 341.235 42.795 0.00 7.03048 0.57
1 1 0 2 o 361.631 42.795 0.00 7.03048 0.30
0 1 1 1 o 0.000 89.078 180.00 6.19453 0.00
0 1 1 2 o 0.000 89.078 180.00 6.19453 0.00
1 2 0 1 o 69452.49 70585.23 180.00 5.89337 81.26
1 2 0 2 o 69468.75 70585.23 180.00 5.89337 40.43
1 1 -1 1 o 916.140 489.382 0.00 5.40033 0.90
1 1 -1 2 o 870.093 489.382 0.00 5.40033 0.42
0 2 1 1 o 2226.705 1314.983 0.00 5.37440 2.16
0 2 1 2 o 2095.994 1314.983 0.00 5.37440 1.01
1 2 -1 1 o 2962.688 3017.691 180.00 4.83087 2.30
1 2 -1 2 o 3028.826 3017.691 180.00 4.83087 1.17
1 3 0 1 o 14.624 13.457 180.00 4.81909 0.01
1 3 0 2 o 14.454 13.457 180.00 4.81909 0.01
0 3 1 1 o 617.977 856.292 180.00 4.52269 0.42
0 3 1 2 o 648.302 856.292 180.00 4.52269 0.22
0 4 0 1 o 52390.00 51445.46 0.00 4.68005 19.04
0 4 0 2 o 52396.58 51445.46 0.00 4.68005 9.47
1 1 1 1 o 1940.623 1678.260 180.00 4.36071 1.22
1 1 1 2 o 1916.560 1678.260 180.00 4.36071 0.60
1 3 -1 1 o 14071.250 13821.164 180.00 4.18424 8.09
1 3 -1 2 o 14644.274 13821.164 180.00 4.18424 4.19
1 2 1 1 o 5201.427 5566.928 180.00 4.04396 2.78
1 2 1 2 o 5314.380 5566.928 180.00 4.04396 1.42
1 4 0 1 o 49080.65 48226.28 0.00 3.98302 25.45
1 4 0 2 o 49067.84 48226.28 0.00 3.98302 12.66
0 4 1 1 o 922.465 919.222 0.00 3.81072 0.44
0 4 1 2 o 916.488 919.222 0.00 3.81072 0.22
2 0 0 1 o 57198.39 57450.18 0.00 3.79288 13.37
2 0 0 2 o 56479.96 57450.18 0.00 3.79288 6.57
2 1 0 1 o 2311.364 2464.410 180.00 3.71735 1.04
2 1 0 2 o 2397.560 2464.410 180.00 3.71735 0.53
2 1 -1 1 o 1233.422 1139.527 0.00 3.59735 0.52
2 1 -1 2 o 1244.118 1139.527 0.00 3.59735 0.26
1 3 1 1 o 12646.010 12304.732 180.00 3.64140 5.42
1 3 1 2 o 12676.364 12304.732 180.00 3.64140 2.70
1 4 -1 1 o 4758.683 4414.763 180.00 3.60160 1.99
1 4 -1 2 o 4757.735 4414.763 180.00 3.60160 0.99
2 2 0 1 o 79311.20 74524.84 180.00 3.51524 31.54
2 2 0 2 o 77015.95 74524.84 180.00 3.51524 15.23
2 2 -1 1 o 193.298 281.960 180.00 3.41325 0.07
2 2 -1 2 o 198.876 281.960 180.00 3.41325 0.04
1 0 -2 1 o 9062.218 9514.515 0.00 3.29856 1.57
1 0 -2 2 o 9485.361 9514.515 0.00 3.29856 0.82
1 5 0 1 o 1270.852 1492.819 0.00 3.35738 0.46
1 5 0 2 o 1234.831 1492.819 0.00 3.35738 0.22
0 0 2 1 o 106142.77 102266.27 0.00 3.28216 18.21
0 0 2 2 o 105451.30 102266.27 0.00 3.28216 9.00
0 5 1 1 o 15033.975 14993.662 0.00 3.25223 5.06
1 1 -2 1 o 13503.359 13395.804 0.00 3.24852 4.53
0 5 1 2 o 15229.903 14993.662 0.00 3.25223 2.55
1 1 -2 2 o 13705.478 13395.804 0.00 3.24852 2.29
0 1 2 1 o 78568.96 75843.42 180.00 3.23285 26.09
0 1 2 2 o 78439.21 75843.42 180.00 3.23285 12.95
1 4 1 1 o 2908.188 2811.064 0.00 3.23778 0.97
1 4 1 2 o 2932.033 2811.064 0.00 3.23778 0.49
2 3 0 1 o 1631.118 1587.905 0.00 3.24112 0.54
2 3 0 2 o 1661.409 1587.905 0.00 3.24112 0.28
2 3 -1 1 o 1988.977 1906.672 180.00 3.16066 0.63
2 3 -1 2 o 2022.726 1906.672 180.00 3.16066 0.32
1 2 -2 1 o 50522.92 50472.13 180.00 3.11103 15.43
1 2 -2 2 o 50218.91 50472.13 180.00 3.11103 7.63
0 2 2 1 o 47406.45 47464.73 180.00 3.09726 14.34
0 2 2 2 o 47609.11 47464.73 180.00 3.09726 7.16
0 6 0 1 o 38404.58 37668.00 180.00 3.12004 5.90
1 5 -1 1 o 17443.473 17145.197 0.00 3.11932 5.36
0 6 0 2 o 37620.21 37668.00 180.00 3.12004 2.88
1 5 -1 2 o 17083.021 17145.197 0.00 3.11932 2.61
0 3 2 1 o 4766.040 4899.506 0.00 2.90485 1.25
0 3 2 2 o 4872.032 4899.506 0.00 2.90485 0.64
2 4 0 1 o 35717.95 35061.258 0.00 2.94668 9.69
1 3 -2 1 o 23882.240 24974.219 180.00 2.91619 6.33
2 1 1 1 o 111.733 118.606 180.00 2.96341 0.03
2 4 0 2 o 36160.16 35061.258 0.00 2.94668 4.88
1 3 -2 2 o 23919.633 24974.219 180.00 2.91619 3.15
2 1 1 2 o 115.681 118.606 180.00 2.96341 0.02
2 4 -1 1 o 941.239 928.974 0.00 2.88583 0.24
1 6 0 1 o 35026.285 34490.473 180.00 2.88550 9.07
2 4 -1 2 o 922.387 928.974 0.00 2.88583 0.12
1 6 0 2 o 34205.531 34490.473 180.00 2.88550 4.41
1 5 1 1 o 14162.871 14547.330 0.00 2.87394 3.64
2 0 -2 1 o 45286.41 43405.25 0.00 2.82006 5.58
1 5 1 2 o 14014.868 14547.330 0.00 2.87394 1.79
2 0 -2 2 o 44933.71 43405.25 0.00 2.82006 2.75
2 2 1 1 o 330.563 332.296 180.00 2.85794 0.08
2 2 1 2 o 347.909 332.296 180.00 2.85794 0.04
0 6 1 1 o 3169.158 3051.419 180.00 2.81793 0.78
2 1 -2 1 o 13726.753 14083.903 0.00 2.78859 3.30
0 6 1 2 o 3161.693 3051.419 180.00 2.81793 0.39
2 1 -2 2 o 13659.085 14083.903 0.00 2.78859 1.63
1 0 2 1 o 36542.00 37898.34 0.00 2.78959 4.39
1 0 2 2 o 36145.73 37898.34 0.00 2.78959 2.16
1 1 2 1 o 15164.218 15575.346 180.00 2.75912 3.56
1 1 2 2 o 15169.380 15575.346 180.00 2.75912 1.77
2 2 -2 1 o 31757.275 32377.422 180.00 2.70017 7.10
2 2 -2 2 o 31270.639 32377.422 180.00 2.70017 3.48
0 4 2 1 o 20033.990 20442.328 0.00 2.68720 4.43
1 6 -1 1 o 2009.402 1724.017 0.00 2.73014 0.46
0 4 2 2 o 20576.902 20442.328 0.00 2.68720 2.26
1 6 -1 2 o 2025.124 1724.017 0.00 2.73014 0.23
1 4 -2 1 o 9117.728 9549.419 0.00 2.69618 2.03
1 4 -2 2 o 9196.652 9549.419 0.00 2.69618 1.02
2 3 1 1 o 1347.423 1347.932 180.00 2.70468 0.30
2 3 1 2 o 1285.506 1347.932 180.00 2.70468 0.14
1 2 2 1 o 13306.637 12828.372 180.00 2.67339 2.91
1 2 2 2 o 13618.463 12828.372 180.00 2.67339 1.48
2 5 0 1 o 4774.990 4457.285 180.00 2.66454 1.04
2 5 0 2 o 4814.342 4457.285 180.00 2.66454 0.52
2 5 -1 1 o 34486.281 32968.586 0.00 2.61929 7.20
2 5 -1 2 o 34373.996 32968.586 0.00 2.61929 3.57
2 3 -2 1 o 3901.929 3831.862 180.00 2.56981 0.78
2 3 -2 2 o 3945.566 3831.862 180.00 2.56981 0.39
1 6 1 1 o 1655.398 1600.102 180.00 2.56107 0.33
1 6 1 2 o 1639.074 1600.102 180.00 2.56107 0.16
1 3 2 1 o 10239.878 10254.116 0.00 2.54669 2.01
1 3 2 2 o 10165.052 10254.116 0.00 2.54669 0.99
3 1 -1 1 o 237.972 240.013 0.00 2.53988 0.05
3 1 -1 2 o 237.234 240.013 0.00 2.53988 0.02
3 0 0 1 o 50305.73 51271.11 0.00 2.52859 4.85
2 4 1 1 o 7185.173 7358.954 0.00 2.52640 1.38
3 0 0 2 o 49765.21 51271.11 0.00 2.52859 2.39
1 7 0 1 o 5.126 5.286 0.00 2.52217 0.00
2 4 1 2 o 7142.688 7358.954 0.00 2.52640 0.68
1 7 0 2 o 5.200 5.286 0.00 2.52217 0.00
3 1 0 1 o 77.968 73.073 180.00 2.50583 0.01
3 1 0 2 o 81.427 73.073 180.00 2.50583 0.01
0 5 2 1 o 12300.465 12869.559 180.00 2.46808 2.25
0 5 2 2 o 12626.878 12869.559 180.00 2.46808 1.15
0 7 1 1 o 18568.457 19450.596 180.00 2.47667 3.42
1 5 -2 1 o 12498.200 13262.396 0.00 2.47503 2.30
3 2 -1 1 o 465.687 492.798 0.00 2.47252 0.09
0 7 1 2 o 18399.244 19450.596 180.00 2.47667 1.68
1 5 -2 2 o 12515.296 13262.396 0.00 2.47503 1.14
3 2 -1 2 o 471.804 492.798 0.00 2.47252 0.04
3 2 0 1 o 43315.09 42249.80 180.00 2.44108 7.71
3 2 0 2 o 43058.58 42249.80 180.00 2.44108 3.81
2 4 -2 1 o 34680.570 34515.195 0.00 2.41544 6.03
1 7 -1 2 o 10798.158 10648.308 180.00 2.41644 0.93
2 6 0 1 o 48900.79 48165.34 180.00 2.40954 8.45
2 4 -2 2 o 34998.465 34515.195 0.00 2.41544 3.03
2 6 0 2 o 48503.56 48165.34 180.00 2.40954 4.17
1 7 -1 1 o 10660.055 10648.308 180.00 2.41644 1.86
1 4 2 1 o 27021.115 27775.959 0.00 2.39621 4.61
1 4 2 2 o 27122.807 27775.959 0.00 2.39621 2.30
2 6 -1 1 o 2265.586 1942.435 0.00 2.37593 0.38
3 3 -1 1 o 2016.984 1681.578 180.00 2.37127 0.34
2 6 -1 2 o 2351.637 1942.435 0.00 2.37593 0.20
3 3 -1 2 o 2013.126 1681.578 180.00 2.37127 0.17
3 3 0 1 o 649.812 629.547 0.00 2.34349 0.11
2 5 1 1 o 11674.134 11355.396 0.00 2.34175 1.89
0 8 0 1 o 20170.127 19639.287 0.00 2.34003 1.63
3 3 0 2 o 649.078 629.547 0.00 2.34349 0.05
2 5 1 2 o 11762.632 11355.396 0.00 2.34175 0.95
0 8 0 2 o 20451.141 19639.287 0.00 2.34003 0.82
3 0 -2 1 o 34599.035 35623.53 0.00 2.26843 2.60
3 0 -2 2 o 34234.234 35623.53 0.00 2.26843 1.28
1 7 1 1 o 8394.747 9332.361 180.00 2.29684 1.30
1 7 1 2 o 8836.409 9332.361 180.00 2.29684 0.68
0 6 2 1 o 16818.996 17508.697 180.00 2.26134 2.51
0 6 2 2 o 17127.242 17508.697 180.00 2.26134 1.27
2 5 -2 1 o 7299.247 7365.604 0.00 2.25257 1.08
3 1 -2 1 o 14521.156 14635.419 0.00 2.25195 2.15
1 6 -2 1 o 16589.332 17347.027 180.00 2.26668 2.49
3 4 -1 1 o 558.203 556.542 180.00 2.24837 0.08
2 5 -2 2 o 7402.963 7365.604 0.00 2.25257 0.54
3 1 -2 2 o 14698.675 14635.419 0.00 2.25195 1.08
1 6 -2 2 o 16548.400 17347.027 180.00 2.26668 1.24
3 4 -1 2 o 561.808 556.542 180.00 2.24837 0.04
1 5 2 1 o 7979.356 7861.537 180.00 2.23695 1.16
1 5 2 2 o 7934.357 7861.537 180.00 2.23695 0.57
1 1 -3 1 o 1443.245 1446.003 0.00 2.22692 0.21
2 0 2 1 o 16756.742 16571.568 0.00 2.24203 1.23
1 1 -3 2 o 1433.557 1446.003 0.00 2.22692 0.10
2 0 2 2 o 16868.457 16571.568 0.00 2.24203 0.61
1 8 0 1 o 24014.674 23608.170 0.00 2.23606 3.50
1 8 0 2 o 23791.131 23608.170 0.00 2.23606 1.72
2 1 2 1 o 22997.605 23123.695 180.00 2.22612 3.31
3 4 0 1 o 27961.658 28195.000 0.00 2.22465 4.02
2 1 2 2 o 22852.113 23123.695 180.00 2.22612 1.64
3 2 -2 1 o 19783.164 19533.561 180.00 2.20461 2.79
0 8 1 1 o 1409.838 1391.204 0.00 2.20417 0.20
3 4 0 2 o 27911.506 28195.000 0.00 2.22465 2.00
3 2 -2 2 o 20012.518 19533.561 180.00 2.20461 1.40
0 8 1 2 o 1428.064 1391.204 0.00 2.20417 0.10
1 2 -3 1 o 247.442 252.957 0.00 2.18110 0.03
1 2 -3 2 o 244.457 252.957 0.00 2.18110 0.02
0 1 3 1 o 2335.458 2401.571 0.00 2.17331 0.32
2 7 0 1 o 1699.489 1680.087 0.00 2.18565 0.23
0 1 3 2 o 2395.773 2401.571 0.00 2.17331 0.16
3 1 1 1 o 2267.151 2305.469 0.00 2.18264 0.31
2 2 2 1 o 17348.918 17920.947 180.00 2.18035 2.38
2 7 0 2 o 1625.735 1680.087 0.00 2.18565 0.11
2 6 1 1 o 5588.557 5415.682 180.00 2.16298 0.75
3 1 1 2 o 2205.580 2305.469 0.00 2.18264 0.15
2 2 2 2 o 17227.680 17920.947 180.00 2.18035 1.18
2 6 1 2 o 5708.593 5415.682 180.00 2.16298 0.38
1 8 -1 1 o 138.761 132.796 180.00 2.16139 0.02
0 2 3 1 o 279.624 266.129 0.00 2.13066 0.04
2 7 -1 1 o 16750.945 15970.520 180.00 2.16047 2.25
1 8 -1 2 o 139.929 132.796 180.00 2.16139 0.01
0 2 3 2 o 282.526 266.129 0.00 2.13066 0.02
2 7 -1 2 o 16751.664 15970.520 180.00 2.16047 1.12
3 3 -2 1 o 9198.752 8771.090 180.00 2.13193 1.20
3 3 -2 2 o 9289.197 8771.090 180.00 2.13193 0.60
3 2 1 1 o 36.664 35.430 0.00 2.13945 0.00
3 2 1 2 o 37.100 35.430 0.00 2.13945 0.00
2 1 -3 1 o 110.057 110.806 0.00 2.10197 0.01
3 5 -1 1 o 9240.928 8685.497 0.00 2.11525 1.18
2 1 -3 2 o 111.754 110.806 0.00 2.10197 0.01
1 3 -3 1 o 1520.730 1489.776 180.00 2.11065 0.19
3 5 -1 2 o 8807.447 8685.497 0.00 2.11525 0.56
2 3 2 1 o 18758.523 18517.750 0.00 2.10997 2.38
1 3 -3 2 o 1471.520 1489.776 180.00 2.11065 0.09
2 3 2 2 o 18199.855 18517.750 0.00 2.10997 1.15
3 5 0 1 o 513.107 505.358 180.00 2.09546 0.06
2 6 -2 1 o 31482.010 31009.563 180.00 2.09212 3.92
3 5 0 2 o 510.908 505.358 180.00 2.09546 0.03
0 7 2 1 o 7352.651 7860.799 0.00 2.07324 0.90
2 6 -2 2 o 30776.432 31009.563 180.00 2.09212 1.91
0 7 2 2 o 7598.145 7860.799 0.00 2.07324 0.46
1 6 2 1 o 11025.793 11701.814 180.00 2.07959 1.35
0 3 3 1 o 742.908 746.526 180.00 2.06484 0.09
2 2 -3 1 o 84.043 83.410 0.00 2.06331 0.01
1 7 -2 1 o 9777.874 10549.935 180.00 2.07735 1.20
1 8 1 1 o 1687.494 1819.515 0.00 2.07453 0.21
1 6 2 2 o 10883.243 11701.814 180.00 2.07959 0.66
0 3 3 2 o 768.880 746.526 180.00 2.06484 0.05
3 3 1 1 o 449.346 484.337 180.00 2.07284 0.05
2 2 -3 2 o 86.356 83.410 0.00 2.06331 0.01
1 7 -2 2 o 9817.665 10549.935 180.00 2.07735 0.60
1 8 1 2 o 1734.208 1819.515 0.00 2.07453 0.11
3 3 1 2 o 468.139 484.337 180.00 2.07284 0.03
3 4 -2 1 o 28391.916 27263.111 0.00 2.04128 3.34
3 4 -2 2 o 28160.371 27263.111 0.00 2.04128 1.64
1 4 -3 1 o 6464.077 6920.050 180.00 2.02258 0.74
2 4 2 1 o 13295.571 14302.240 0.00 2.02198 1.53
1 4 -3 2 o 6524.416 6920.050 180.00 2.02258 0.37
2 3 -3 1 o 3260.733 3214.337 180.00 2.00336 0.37
2 4 2 2 o 13518.588 14302.240 0.00 2.02198 0.77
2 3 -3 2 o 3191.293 3214.337 180.00 2.00336 0.18
1 9 0 1 o 704.097 683.912 180.00 2.00598 0.08
1 9 0 2 o 684.646 683.912 180.00 2.00598 0.04
2 7 1 1 o 20611.633 20869.773 180.00 1.99665 2.30
0 4 3 1 o 2890.224 2792.344 0.00 1.98216 0.32
2 7 1 2 o 20979.270 20869.773 180.00 1.99665 1.16
2 8 0 1 o 10573.932 10509.172 0.00 1.99151 1.17
0 4 3 2 o 2925.311 2792.344 0.00 1.98216 0.16
3 4 1 1 o 653.915 643.068 0.00 1.98923 0.07
2 8 0 2 o 10778.099 10509.172 0.00 1.99151 0.59
3 4 1 2 o 663.087 643.068 0.00 1.98923 0.04
0 9 1 1 o 20898.547 20207.662 0.00 1.98286 2.29
3 6 -1 1 o 343.598 330.518 0.00 1.98073 0.04
0 9 1 2 o 21153.566 20207.662 0.00 1.98286 1.15
3 6 -1 2 o 348.075 330.518 0.00 1.98073 0.02
1 1 3 1 o 77.854 73.693 180.00 1.97433 0.01
2 8 -1 1 o 1851.267 1744.644 180.00 1.97240 0.20
1 1 3 2 o 78.420 73.693 180.00 1.97433 0.00
2 8 -1 2 o 1862.299 1744.644 180.00 1.97240 0.10
3 6 0 1 o 28666.621 26835.061 180.00 1.96446 3.07
3 6 0 2 o 28294.439 26835.061 180.00 1.96446 1.51
1 2 3 1 o 1653.650 1621.001 180.00 1.94219 0.17
3 5 -2 1 o 6140.274 6073.077 0.00 1.94011 0.64
1 9 -1 1 o 12733.143 12316.405 0.00 1.95154 1.34
1 2 3 2 o 1610.340 1621.001 180.00 1.94219 0.08
3 5 -2 2 o 5919.923 6073.077 0.00 1.94011 0.31
1 9 -1 2 o 12708.330 12316.405 0.00 1.95154 0.67
4 1 -1 1 o 120.614 126.289 180.00 1.93343 0.01
1 7 2 1 o 9964.995 10789.530 0.00 1.93049 1.02
4 1 -1 2 o 114.404 126.289 180.00 1.93343 0.01
2 7 -2 1 o 4707.999 4640.375 180.00 1.94051 0.49
2 4 -3 1 o 1930.095 2146.993 180.00 1.92759 0.20
1 7 2 2 o 9577.869 10789.530 0.00 1.93049 0.49
2 7 -2 2 o 4544.895 4640.375 180.00 1.94051 0.24
2 4 -3 2 o 1904.886 2146.993 180.00 1.92759 0.10
1 5 -3 1 o 1349.200 1532.544 0.00 1.92403 0.14
2 5 2 1 o 13002.576 14773.104 180.00 1.92352 1.33
1 5 -3 2 o 1389.384 1532.544 0.00 1.92403 0.07
2 5 2 2 o 13473.708 14773.104 180.00 1.92352 0.68
0 8 2 1 o 7406.796 7080.944 0.00 1.90536 0.74
4 2 -1 1 o 664.257 632.675 0.00 1.90322 0.07
0 8 2 2 o 7406.225 7080.944 0.00 1.90536 0.37
4 2 -1 2 o 659.868 632.675 0.00 1.90322 0.03
1 8 -2 1 o 7211.672 6947.412 0.00 1.90855 0.72
1 3 3 1 o 121.429 118.314 180.00 1.89195 0.01
1 8 -2 2 o 7316.750 6947.412 0.00 1.90855 0.36
0 5 3 1 o 1689.091 1651.763 0.00 1.88914 0.16
1 3 3 2 o 120.937 118.314 180.00 1.89195 0.01
1 9 1 1 o 7163.553 7007.533 0.00 1.88690 0.70
0 5 3 2 o 1690.594 1651.763 0.00 1.88914 0.08
4 0 0 1 o 20051.414 19305.529 0.00 1.89644 0.99
3 1 -3 1 o 81.750 81.951 180.00 1.87063 0.01
3 5 1 1 o 7771.915 7506.885 0.00 1.89526 0.76
1 9 1 2 o 7184.164 7007.533 0.00 1.88690 0.35
4 0 0 2 o 19799.273 19305.529 0.00 1.89644 0.48
3 1 -3 2 o 80.573 81.951 180.00 1.87063 0.00
3 5 1 2 o 7681.268 7506.885 0.00 1.89526 0.38
4 1 0 1 o 4893.435 4788.563 180.00 1.88678 0.48
4 1 0 2 o 4909.980 4788.563 180.00 1.88678 0.24
0 10 0 1 o 3698.373 3687.575 180.00 1.87202 0.18
4 3 -1 1 o 7038.793 6882.206 180.00 1.85586 0.66
0 10 0 2 o 3621.399 3687.575 180.00 1.87202 0.09
4 3 -1 2 o 7088.479 6882.206 180.00 1.85586 0.33
3 2 -3 2 o 262.906 271.975 0.00 1.84322 0.01
3 7 -1 1 o 8206.809 7970.059 180.00 1.85064 0.76
4 2 0 1 o 17287.973 17199.600 180.00 1.85867 1.62
3 7 -1 2 o 7920.048 7970.059 180.00 1.85064 0.37
2 8 1 1 o 1143.250 1157.949 0.00 1.84540 0.11
3 2 -3 1 o 264.672 271.975 0.00 1.84322 0.02
4 2 0 2 o 17746.422 17199.600 180.00 1.85867 0.83
2 5 -3 1 o 6170.371 6409.229 0.00 1.84172 0.57
2 8 1 2 o 1109.719 1157.949 0.00 1.84540 0.05
3 7 0 1 o 5.015 5.178 180.00 1.83734 0.00
2 5 -3 2 o 6225.346 6409.229 0.00 1.84172 0.28
3 6 -2 1 o 9917.827 10053.624 180.00 1.83475 0.90
4 0 -2 1 o 29007.680 29126.617 0.00 1.83283 1.32
3 7 0 2 o 5.164 5.178 180.00 1.83734 0.00
3 6 -2 2 o 10092.733 10053.624 180.00 1.83475 0.46
4 0 -2 2 o 29262.053 29126.617 0.00 1.83283 0.66
1 4 3 1 o 6433.034 6400.177 0.00 1.82774 0.58
4 1 -2 1 o 1288.445 1281.181 0.00 1.82411 0.12
2 9 0 1 o 24.986 24.850 180.00 1.82378 0.00
1 4 3 2 o 6439.786 6400.177 0.00 1.82774 0.29
1 6 -3 1 o 5807.248 5756.800 0.00 1.82114 0.52
2 6 2 1 o 4940.103 4893.278 180.00 1.82070 0.44
4 1 -2 2 o 1295.997 1281.181 0.00 1.82411 0.06
2 9 0 2 o 25.159 24.850 180.00 1.82378 0.00
1 10 0 1 o 2169.906 2135.418 180.00 1.81750 0.19
1 6 -3 2 o 5858.107 5756.800 0.00 1.82114 0.26
2 6 2 2 o 4981.936 4893.278 180.00 1.82070 0.22
4 3 0 1 o 324.422 317.881 0.00 1.81449 0.03
1 10 0 2 o 2182.050 2135.418 180.00 1.81750 0.10
3 3 -3 1 o 1205.667 1218.336 180.00 1.80011 0.10
4 3 0 2 o 324.324 317.881 0.00 1.81449 0.01
2 9 -1 1 o 14328.005 14068.228 0.00 1.80907 1.26
3 3 -3 2 o 1206.203 1218.336 180.00 1.80011 0.05
2 9 -1 2 o 14060.088 14068.228 0.00 1.80907 0.61
0 6 3 1 o 7361.819 7413.746 180.00 1.79147 0.63
3 0 2 1 o 14470.523 14155.555 0.00 1.81331 0.64
2 8 -2 1 o 7092.335 7175.670 0.00 1.80080 0.62
0 10 1 1 o 3887.854 3933.068 180.00 1.80025 0.34
4 2 -2 1 o 13363.371 13518.522 180.00 1.79867 1.16
0 6 3 2 o 7345.667 7413.746 180.00 1.79147 0.31
3 0 2 2 o 14412.097 14155.555 0.00 1.81331 0.32
3 6 1 1 o 1319.045 1335.133 180.00 1.79668 0.11
2 8 -2 2 o 7091.320 7175.670 0.00 1.80080 0.31
0 10 1 2 o 3890.438 3933.068 180.00 1.80025 0.17
4 4 -1 1 o 285.322 288.285 180.00 1.79514 0.02
4 2 -2 2 o 13396.698 13518.522 180.00 1.79867 0.58
3 1 2 1 o 12248.368 12243.752 180.00 1.80486 1.07
1 8 2 1 o 7581.993 7642.756 0.00 1.79279 0.65
3 6 1 2 o 1324.894 1335.133 180.00 1.79668 0.06
4 4 -1 2 o 286.249 288.285 180.00 1.79514 0.01
3 1 2 2 o 12088.378 12243.752 180.00 1.80486 0.53
1 8 2 2 o 7580.194 7642.756 0.00 1.79279 0.32
3 2 2 1 o 11569.271 11696.748 180.00 1.78021 0.98
1 10 -1 1 o 1013.560 992.449 0.00 1.77671 0.09
3 2 2 2 o 12092.370 11696.748 180.00 1.78021 0.51
1 10 -1 2 o 1079.277 992.449 0.00 1.77671 0.05
1 9 -2 1 o 1549.823 1499.111 0.00 1.75943 0.13
4 3 -2 1 o 2481.818 2418.172 180.00 1.75855 0.20
4 4 0 1 o 17563.768 17247.895 0.00 1.75762 1.44
0 9 2 1 o 1281.857 1265.383 180.00 1.75692 0.10
3 4 -3 1 o 3065.502 3284.558 180.00 1.74454 0.25
1 9 -2 2 o 1494.798 1499.111 0.00 1.75943 0.06
4 3 -2 2 o 2397.024 2418.172 180.00 1.75855 0.10
1 5 3 1 o 2005.396 2025.786 0.00 1.75404 0.16
4 4 0 2 o 16958.367 17247.895 0.00 1.75762 0.69
0 9 2 2 o 1238.994 1265.383 180.00 1.75692 0.05
3 4 -3 2 o 3079.063 3284.558 180.00 1.74454 0.12
2 6 -3 1 o 9107.590 9427.245 0.00 1.75087 0.74
1 5 3 2 o 1942.504 2025.786 0.00 1.75404 0.08
2 6 -3 2 o 8853.799 9427.245 0.00 1.75087 0.36
3 3 2 1 o 7673.878 8281.664 0.00 1.74128 0.61
3 3 2 2 o 7963.449 8281.664 0.00 1.74128 0.32
3 7 -2 1 o 6062.481 5723.154 180.00 1.72992 0.48
3 8 -1 1 o 792.843 738.673 180.00 1.72829 0.06
1 10 1 1 o 1683.082 1565.425 180.00 1.72752 0.13
3 7 -2 2 o 6157.409 5723.154 180.00 1.72992 0.24
4 5 -1 1 o 5501.045 5120.058 0.00 1.72517 0.43
2 1 3 1 o 223.504 207.988 180.00 1.72484 0.02
3 8 -1 2 o 790.070 738.673 180.00 1.72829 0.03
1 10 1 2 o 1663.534 1565.425 180.00 1.72752 0.06
4 5 -1 2 o 5325.803 5120.058 0.00 1.72517 0.21
2 1 3 2 o 215.684 207.988 180.00 1.72484 0.01
1 7 -3 1 o 2714.922 2670.846 180.00 1.71849 0.21
2 7 2 1 o 10130.877 9991.420 0.00 1.71812 0.78
3 8 0 1 o 8199.942 8132.515 0.00 1.71745 0.63
4 4 -2 1 o 11476.688 11246.642 0.00 1.70663 0.87
1 7 -3 2 o 2653.041 2670.846 180.00 1.71849 0.10
2 7 2 2 o 9927.854 9991.420 0.00 1.71812 0.38
4 1 1 1 o 742.656 749.221 0.00 1.71320 0.06
3 8 0 2 o 8067.141 8132.515 0.00 1.71745 0.31
4 4 -2 2 o 11674.526 11246.642 0.00 1.70663 0.44
2 9 1 1 o 10173.209 10154.926 0.00 1.70958 0.78
4 1 1 2 o 752.755 749.221 0.00 1.71320 0.03
2 9 1 2 o 10449.493 10154.926 0.00 1.70958 0.40
0 7 3 1 o 2775.124 2737.325 180.00 1.69349 0.21
2 2 3 1 o 127.547 122.863 180.00 1.70329 0.01
0 7 3 2 o 2717.562 2737.325 180.00 1.69349 0.10
2 2 3 2 o 127.248 122.863 180.00 1.70329 0.00
3 7 1 1 o 5557.333 5384.758 180.00 1.69789 0.42
1 0 -4 1 o 1460.058 1502.143 0.00 1.68528 0.05
3 7 1 2 o 5466.856 5384.758 180.00 1.69789 0.20
4 2 1 1 o 20.789 20.630 180.00 1.69208 0.00
4 5 0 1 o 1541.412 1532.081 180.00 1.69179 0.11
1 0 -4 2 o 1437.639 1502.143 0.00 1.68528 0.03
3 4 2 1 o 7168.631 7160.679 0.00 1.69083 0.53
3 5 -3 1 o 741.069 777.058 0.00 1.68012 0.05
1 1 -4 1 o 13507.479 14193.047 0.00 1.67849 0.99
4 2 1 2 o 20.304 20.630 180.00 1.69208 0.00
4 5 0 2 o 1505.656 1532.081 180.00 1.69179 0.06
3 4 2 2 o 6998.543 7160.679 0.00 1.69083 0.26
3 5 -3 2 o 739.282 777.058 0.00 1.68012 0.03
1 6 3 1 o 4392.713 4606.273 180.00 1.67503 0.32
1 1 -4 2 o 13584.699 14193.047 0.00 1.67849 0.49
1 6 3 2 o 4523.098 4606.273 180.00 1.67503 0.16
2 10 0 1 o 7444.725 7846.067 180.00 1.67869 0.54
1 9 2 1 o 3167.348 3082.040 180.00 1.66750 0.23
2 10 0 2 o 7471.671 7846.067 180.00 1.67869 0.27
2 9 -2 1 o 1516.680 1588.658 0.00 1.67394 0.11
1 9 2 2 o 3323.715 3082.040 180.00 1.66750 0.12
2 9 -2 2 o 1577.693 1588.658 0.00 1.67394 0.06
2 3 3 1 o 316.994 315.818 180.00 1.66910 0.02
1 2 -4 1 o 913.621 841.266 180.00 1.65861 0.06
2 10 -1 1 o 472.281 457.124 0.00 1.66720 0.03
2 3 3 2 o 336.221 315.818 180.00 1.66910 0.01
2 7 -3 2 o 3092.222 2879.189 180.00 1.65908 0.11
1 2 -4 2 o 900.349 841.266 180.00 1.65861 0.03
2 10 -1 2 o 495.598 457.124 0.00 1.66720 0.02
1 11 0 1 o 100.781 92.292 0.00 1.66056 0.01
4 6 -1 1 o 25.405 24.375 180.00 1.64983 0.00
2 7 -3 1 o 3135.934 2879.189 180.00 1.65908 0.22
2 0 -4 1 o 3158.724 3043.895 0.00 1.64928 0.11
4 3 1 1 o 3222.568 2957.773 180.00 1.65854 0.23
0 11 1 1 o 26661.264 25982.191 180.00 1.64738 1.86
1 11 0 2 o 99.804 92.292 0.00 1.66056 0.00
4 5 -2 1 o 2994.584 2940.165 0.00 1.64617 0.21
4 6 -1 2 o 24.761 24.375 180.00 1.64983 0.00
2 0 -4 2 o 3082.174 3043.895 0.00 1.64928 0.05
4 3 1 2 o 3171.383 2957.773 180.00 1.65854 0.11
0 11 1 2 o 25993.918 25982.191 180.00 1.64738 0.90
2 1 -4 1 o 15901.979 15921.556 0.00 1.64292 1.10
4 5 -2 2 o 2920.559 2940.165 0.00 1.64617 0.10
0 0 4 1 o 78.948 79.941 180.00 1.64108 0.00
2 1 -4 2 o 15556.498 15921.556 0.00 1.64292 0.54
0 0 4 2 o 77.427 79.941 180.00 1.64108 0.00
0 1 4 1 o 33546.207 34818.902 180.00 1.63481 2.30
0 1 4 2 o 33630.098 34818.902 180.00 1.63481 1.15
3 8 -2 1 o 6810.891 7015.990 0.00 1.62874 0.46
1 3 -4 1 o 17612.439 17989.471 180.00 1.62698 1.19
0 10 2 1 o 3221.385 3276.042 180.00 1.62612 0.22
3 8 -2 2 o 6944.267 7015.990 0.00 1.62874 0.23
2 4 3 1 o 4231.506 4269.400 0.00 1.62451 0.29
2 2 -4 1 o 1649.619 1659.899 180.00 1.62426 0.11
1 3 -4 2 o 18015.590 17989.471 180.00 1.62698 0.61
3 5 2 1 o 8739.005 9093.881 180.00 1.63198 0.60
4 1 -3 1 o 46.969 46.631 180.00 1.62227 0.00
0 10 2 2 o 3302.017 3276.042 180.00 1.62612 0.11
4 6 0 1 o 13382.521 13113.542 180.00 1.62056 0.90
2 4 3 2 o 4360.685 4269.400 0.00 1.62451 0.15
2 2 -4 2 o 1700.242 1659.899 180.00 1.62426 0.06
1 11 -1 1 o 11867.893 12262.770 180.00 1.62928 0.81
1 10 -2 1 o 4457.672 4584.221 180.00 1.62810 0.30
2 8 2 1 o 5426.037 5223.300 0.00 1.61889 0.36
3 5 2 2 o 8853.717 9093.881 180.00 1.63198 0.30
4 1 -3 2 o 48.743 46.631 180.00 1.62227 0.00
4 6 0 2 o 14012.962 13113.542 180.00 1.62056 0.47
0 2 4 1 o 3701.201 3468.424 180.00 1.61643 0.25
1 11 -1 2 o 12094.719 12262.770 180.00 1.62928 0.41
3 9 -1 1 o 17569.760 16217.198 0.00 1.61523 1.17
1 10 -2 2 o 4552.242 4584.221 180.00 1.62810 0.15
2 8 2 2 o 5666.108 5223.300 0.00 1.61889 0.19
0 2 4 2 o 3782.555 3468.424 180.00 1.61643 0.13
3 9 -1 2 o 17727.848 16217.198 0.00 1.61523 0.59
3 6 -3 1 o 2474.030 2281.017 0.00 1.61029 0.16
1 8 -3 1 o 4336.834 4187.981 180.00 1.61920 0.29
3 9 0 1 o 6.204 5.945 180.00 1.60636 0.00
3 6 -3 2 o 2376.176 2281.017 0.00 1.61029 0.08
1 8 -3 2 o 4541.139 4187.981 180.00 1.61920 0.15
4 4 1 1 o 2027.395 1863.066 0.00 1.61477 0.13
4 2 -3 1 o 669.296 660.145 0.00 1.60430 0.04
3 9 0 2 o 5.865 5.945 180.00 1.60636 0.00
3 8 1 1 o 1515.043 1545.832 0.00 1.60193 0.10
4 4 1 2 o 2034.136 1863.066 0.00 1.61477 0.07
4 2 -3 2 o 634.862 660.145 0.00 1.60430 0.02
0 8 3 1 o 5730.476 6099.875 0.00 1.59824 0.37
3 8 1 2 o 1441.683 1545.832 0.00 1.60193 0.05
2 3 -4 1 o 8785.172 9538.653 180.00 1.59453 0.57
0 8 3 2 o 5622.003 6099.875 0.00 1.59824 0.18
1 7 3 1 o 767.391 834.195 180.00 1.59412 0.05
1 11 1 1 o 12030.627 12900.862 180.00 1.59110 0.77
2 3 -4 2 o 8971.371 9538.653 180.00 1.59453 0.29
1 7 3 2 o 787.287 834.195 180.00 1.59412 0.03
2 10 1 1 o 2600.490 2695.960 180.00 1.58837 0.17
1 11 1 2 o 12681.892 12900.862 180.00 1.59110 0.40
0 3 4 1 o 12730.512 12922.298 0.00 1.58711 0.81
1 4 -4 1 o 268.073 265.666 0.00 1.58561 0.02
2 10 1 2 o 2775.909 2695.960 180.00 1.58837 0.09
0 3 4 2 o 13561.189 12922.298 0.00 1.58711 0.43
1 4 -4 2 o 285.367 265.666 0.00 1.58561 0.01
4 6 -2 1 o 13758.526 12614.391 180.00 1.58033 0.87
4 6 -2 2 o 13863.398 12614.391 180.00 1.58033 0.43
4 3 -3 1 o 827.494 759.483 180.00 1.57563 0.05
4 7 -1 1 o 8152.304 7779.274 180.00 1.57236 0.51
2 5 3 1 o 16.392 15.720 0.00 1.57211 0.00
4 3 -3 2 o 785.366 759.483 180.00 1.57563 0.02
2 8 -3 1 o 4416.870 4495.151 180.00 1.56921 0.27
4 7 -1 2 o 7529.741 7779.274 180.00 1.57236 0.23
2 5 3 2 o 15.154 15.720 0.00 1.57211 0.00
3 6 2 1 o 7764.116 8132.845 180.00 1.56777 0.48
2 8 -3 2 o 4165.869 4495.151 180.00 1.56921 0.13
3 6 2 2 o 7519.005 8132.845 180.00 1.56777 0.23
4 5 1 1 o 3373.124 3640.405 0.00 1.56328 0.21
0 12 0 1 o 4832.443 4972.810 0.00 1.56002 0.15
2 10 -2 1 o 3521.982 3601.045 180.00 1.55966 0.21
4 5 1 2 o 3576.510 3640.405 0.00 1.56328 0.11
0 4 4 1 o 1030.635 1002.546 0.00 1.54863 0.06
0 12 0 2 o 5137.059 4972.810 0.00 1.56002 0.08
2 10 -2 2 o 3736.012 3601.045 180.00 1.55966 0.11
3 0 -4 1 o 1742.910 1723.837 0.00 1.54686 0.05
2 4 -4 1 o 7038.559 6785.193 0.00 1.55552 0.43
1 10 2 1 o 359.654 343.503 180.00 1.55445 0.02
0 4 4 2 o 998.306 1002.546 0.00 1.54863 0.03
5 1 -1 1 o 17.336 16.450 0.00 1.55274 0.00
2 11 0 1 o 105.226 99.655 0.00 1.55270 0.01
3 0 -4 2 o 1711.007 1723.837 0.00 1.54686 0.03
2 4 -4 2 o 7131.599 6785.193 0.00 1.55552 0.21
1 10 2 2 o 359.454 343.503 180.00 1.55445 0.01
3 1 -4 1 o 15802.760 15906.590 0.00 1.54161 0.94
5 1 -1 2 o 16.965 16.450 0.00 1.55274 0.00
2 11 0 2 o 102.781 99.655 0.00 1.55270 0.00
4 7 0 1 o 1650.079 1633.746 0.00 1.54696 0.10
2 11 -1 1 o 14437.789 14605.688 180.00 1.54360 0.86
4 7 0 2 o 1615.053 1633.746 0.00 1.54696 0.05
